
---------- Begin Simulation Statistics ----------
simSeconds                                   0.006210                       # Number of seconds simulated (Second)
simTicks                                   6209568500                       # Number of ticks simulated (Tick)
finalTick                                  6209568500                       # Number of ticks from beginning of simulation (restored from checkpoints and never reset) (Tick)
simFreq                                  1000000000000                       # The number of ticks per simulated second ((Tick/Second))
hostSeconds                                     23.75                       # Real time elapsed on the host (Second)
hostTickRate                                261439433                       # The number of ticks simulated per host second (ticks/s) ((Tick/Second))
hostMemory                                     748476                       # Number of bytes of host memory used (Byte)
simInsts                                      8560495                       # Number of instructions simulated (Count)
simOps                                       15647514                       # Number of ops (including micro ops) simulated (Count)
hostInstRate                                   360419                       # Simulator instruction rate (inst/s) ((Count/Second))
hostOpRate                                     658800                       # Simulator op (including micro ops) rate (op/s) ((Count/Second))
system.clk_domain.clock                          1000                       # Clock period in ticks (Tick)
system.cpu.numCycles                         12419138                       # Number of cpu cycles simulated (Cycle)
system.cpu.cpi                               1.450750                       # CPI: cycles per instruction (core level) ((Cycle/Count))
system.cpu.ipc                               0.689299                       # IPC: instructions per cycle (core level) ((Count/Cycle))
system.cpu.numWorkItemsStarted                      0                       # Number of work items this cpu started (Count)
system.cpu.numWorkItemsCompleted                    0                       # Number of work items this cpu completed (Count)
system.cpu.instsAdded                        20351338                       # Number of instructions added to the IQ (excludes non-spec) (Count)
system.cpu.nonSpecInstsAdded                   197152                       # Number of non-speculative instructions added to the IQ (Count)
system.cpu.instsIssued                       19436222                       # Number of instructions issued (Count)
system.cpu.squashedInstsIssued                      3                       # Number of squashed instructions issued (Count)
system.cpu.squashedInstsExamined              4900970                       # Number of squashed instructions iterated over during squash; mainly for profiling (Count)
system.cpu.squashedOperandsExamined           7302726                       # Number of squashed operands that are examined and possibly removed from graph (Count)
system.cpu.squashedNonSpecRemoved                 253                       # Number of squashed non-spec instructions that were removed (Count)
system.cpu.numIssuedDist::samples            12261189                       # Number of insts issued each cycle (Count)
system.cpu.numIssuedDist::mean               1.585182                       # Number of insts issued each cycle (Count)
system.cpu.numIssuedDist::stdev              1.918608                       # Number of insts issued each cycle (Count)
system.cpu.numIssuedDist::underflows                0      0.00%      0.00% # Number of insts issued each cycle (Count)
system.cpu.numIssuedDist::0                   4951784     40.39%     40.39% # Number of insts issued each cycle (Count)
system.cpu.numIssuedDist::1                   2594363     21.16%     61.54% # Number of insts issued each cycle (Count)
system.cpu.numIssuedDist::2                   1796947     14.66%     76.20% # Number of insts issued each cycle (Count)
system.cpu.numIssuedDist::3                    886415      7.23%     83.43% # Number of insts issued each cycle (Count)
system.cpu.numIssuedDist::4                    666478      5.44%     88.87% # Number of insts issued each cycle (Count)
system.cpu.numIssuedDist::5                    738108      6.02%     94.89% # Number of insts issued each cycle (Count)
system.cpu.numIssuedDist::6                    297073      2.42%     97.31% # Number of insts issued each cycle (Count)
system.cpu.numIssuedDist::7                    233687      1.91%     99.21% # Number of insts issued each cycle (Count)
system.cpu.numIssuedDist::8                     61598      0.50%     99.72% # Number of insts issued each cycle (Count)
system.cpu.numIssuedDist::9                     27274      0.22%     99.94% # Number of insts issued each cycle (Count)
system.cpu.numIssuedDist::10                     6617      0.05%     99.99% # Number of insts issued each cycle (Count)
system.cpu.numIssuedDist::11                      584      0.00%    100.00% # Number of insts issued each cycle (Count)
system.cpu.numIssuedDist::12                      226      0.00%    100.00% # Number of insts issued each cycle (Count)
system.cpu.numIssuedDist::13                       26      0.00%    100.00% # Number of insts issued each cycle (Count)
system.cpu.numIssuedDist::14                        8      0.00%    100.00% # Number of insts issued each cycle (Count)
system.cpu.numIssuedDist::15                        1      0.00%    100.00% # Number of insts issued each cycle (Count)
system.cpu.numIssuedDist::16                        0      0.00%    100.00% # Number of insts issued each cycle (Count)
system.cpu.numIssuedDist::17                        0      0.00%    100.00% # Number of insts issued each cycle (Count)
system.cpu.numIssuedDist::18                        0      0.00%    100.00% # Number of insts issued each cycle (Count)
system.cpu.numIssuedDist::19                        0      0.00%    100.00% # Number of insts issued each cycle (Count)
system.cpu.numIssuedDist::overflows                 0      0.00%    100.00% # Number of insts issued each cycle (Count)
system.cpu.numIssuedDist::min_value                 0                       # Number of insts issued each cycle (Count)
system.cpu.numIssuedDist::max_value                15                       # Number of insts issued each cycle (Count)
system.cpu.numIssuedDist::total              12261189                       # Number of insts issued each cycle (Count)
system.cpu.statFuBusy::No_OpClass                   0      0.00%      0.00% # attempts to use FU when none available (Count)
system.cpu.statFuBusy::IntAlu                       0      0.00%      0.00% # attempts to use FU when none available (Count)
system.cpu.statFuBusy::IntMult                      0      0.00%      0.00% # attempts to use FU when none available (Count)
system.cpu.statFuBusy::IntDiv                       0      0.00%      0.00% # attempts to use FU when none available (Count)
system.cpu.statFuBusy::FloatAdd                     0      0.00%      0.00% # attempts to use FU when none available (Count)
system.cpu.statFuBusy::FloatCmp                     0      0.00%      0.00% # attempts to use FU when none available (Count)
system.cpu.statFuBusy::FloatCvt                     0      0.00%      0.00% # attempts to use FU when none available (Count)
system.cpu.statFuBusy::FloatMult                    0      0.00%      0.00% # attempts to use FU when none available (Count)
system.cpu.statFuBusy::FloatMultAcc                 0      0.00%      0.00% # attempts to use FU when none available (Count)
system.cpu.statFuBusy::FloatDiv                     0      0.00%      0.00% # attempts to use FU when none available (Count)
system.cpu.statFuBusy::FloatMisc                    0      0.00%      0.00% # attempts to use FU when none available (Count)
system.cpu.statFuBusy::FloatSqrt                    0      0.00%      0.00% # attempts to use FU when none available (Count)
system.cpu.statFuBusy::SimdAdd                      0      0.00%      0.00% # attempts to use FU when none available (Count)
system.cpu.statFuBusy::SimdAddAcc                   0      0.00%      0.00% # attempts to use FU when none available (Count)
system.cpu.statFuBusy::SimdAlu                      0      0.00%      0.00% # attempts to use FU when none available (Count)
system.cpu.statFuBusy::SimdCmp                      0      0.00%      0.00% # attempts to use FU when none available (Count)
system.cpu.statFuBusy::SimdCvt                      0      0.00%      0.00% # attempts to use FU when none available (Count)
system.cpu.statFuBusy::SimdMisc                     0      0.00%      0.00% # attempts to use FU when none available (Count)
system.cpu.statFuBusy::SimdMult                     0      0.00%      0.00% # attempts to use FU when none available (Count)
system.cpu.statFuBusy::SimdMultAcc                  0      0.00%      0.00% # attempts to use FU when none available (Count)
system.cpu.statFuBusy::SimdMatMultAcc               0      0.00%      0.00% # attempts to use FU when none available (Count)
system.cpu.statFuBusy::SimdShift                    0      0.00%      0.00% # attempts to use FU when none available (Count)
system.cpu.statFuBusy::SimdShiftAcc                 0      0.00%      0.00% # attempts to use FU when none available (Count)
system.cpu.statFuBusy::SimdDiv                      0      0.00%      0.00% # attempts to use FU when none available (Count)
system.cpu.statFuBusy::SimdSqrt                     0      0.00%      0.00% # attempts to use FU when none available (Count)
system.cpu.statFuBusy::SimdFloatAdd                 0      0.00%      0.00% # attempts to use FU when none available (Count)
system.cpu.statFuBusy::SimdFloatAlu                 0      0.00%      0.00% # attempts to use FU when none available (Count)
system.cpu.statFuBusy::SimdFloatCmp                 0      0.00%      0.00% # attempts to use FU when none available (Count)
system.cpu.statFuBusy::SimdFloatCvt                 0      0.00%      0.00% # attempts to use FU when none available (Count)
system.cpu.statFuBusy::SimdFloatDiv                 0      0.00%      0.00% # attempts to use FU when none available (Count)
system.cpu.statFuBusy::SimdFloatMisc                0      0.00%      0.00% # attempts to use FU when none available (Count)
system.cpu.statFuBusy::SimdFloatMult                0      0.00%      0.00% # attempts to use FU when none available (Count)
system.cpu.statFuBusy::SimdFloatMultAcc             0      0.00%      0.00% # attempts to use FU when none available (Count)
system.cpu.statFuBusy::SimdFloatMatMultAcc            0      0.00%      0.00% # attempts to use FU when none available (Count)
system.cpu.statFuBusy::SimdFloatSqrt                0      0.00%      0.00% # attempts to use FU when none available (Count)
system.cpu.statFuBusy::SimdReduceAdd                0      0.00%      0.00% # attempts to use FU when none available (Count)
system.cpu.statFuBusy::SimdReduceAlu                0      0.00%      0.00% # attempts to use FU when none available (Count)
system.cpu.statFuBusy::SimdReduceCmp                0      0.00%      0.00% # attempts to use FU when none available (Count)
system.cpu.statFuBusy::SimdFloatReduceAdd            0      0.00%      0.00% # attempts to use FU when none available (Count)
system.cpu.statFuBusy::SimdFloatReduceCmp            0      0.00%      0.00% # attempts to use FU when none available (Count)
system.cpu.statFuBusy::SimdAes                      0      0.00%      0.00% # attempts to use FU when none available (Count)
system.cpu.statFuBusy::SimdAesMix                   0      0.00%      0.00% # attempts to use FU when none available (Count)
system.cpu.statFuBusy::SimdSha1Hash                 0      0.00%      0.00% # attempts to use FU when none available (Count)
system.cpu.statFuBusy::SimdSha1Hash2                0      0.00%      0.00% # attempts to use FU when none available (Count)
system.cpu.statFuBusy::SimdSha256Hash               0      0.00%      0.00% # attempts to use FU when none available (Count)
system.cpu.statFuBusy::SimdSha256Hash2              0      0.00%      0.00% # attempts to use FU when none available (Count)
system.cpu.statFuBusy::SimdShaSigma2                0      0.00%      0.00% # attempts to use FU when none available (Count)
system.cpu.statFuBusy::SimdShaSigma3                0      0.00%      0.00% # attempts to use FU when none available (Count)
system.cpu.statFuBusy::SimdPredAlu                  0      0.00%      0.00% # attempts to use FU when none available (Count)
system.cpu.statFuBusy::Matrix                       0      0.00%      0.00% # attempts to use FU when none available (Count)
system.cpu.statFuBusy::MatrixMov                    0      0.00%      0.00% # attempts to use FU when none available (Count)
system.cpu.statFuBusy::MatrixOP                     0      0.00%      0.00% # attempts to use FU when none available (Count)
system.cpu.statFuBusy::MemRead                      1     20.00%     20.00% # attempts to use FU when none available (Count)
system.cpu.statFuBusy::MemWrite                     0      0.00%     20.00% # attempts to use FU when none available (Count)
system.cpu.statFuBusy::FloatMemRead                 0      0.00%     20.00% # attempts to use FU when none available (Count)
system.cpu.statFuBusy::FloatMemWrite                4     80.00%    100.00% # attempts to use FU when none available (Count)
system.cpu.statFuBusy::IprAccess                    0      0.00%    100.00% # attempts to use FU when none available (Count)
system.cpu.statFuBusy::InstPrefetch                 0      0.00%    100.00% # attempts to use FU when none available (Count)
system.cpu.statFuBusy::SimdUnitStrideLoad            0      0.00%    100.00% # attempts to use FU when none available (Count)
system.cpu.statFuBusy::SimdUnitStrideStore            0      0.00%    100.00% # attempts to use FU when none available (Count)
system.cpu.statFuBusy::SimdUnitStrideMaskLoad            0      0.00%    100.00% # attempts to use FU when none available (Count)
system.cpu.statFuBusy::SimdUnitStrideMaskStore            0      0.00%    100.00% # attempts to use FU when none available (Count)
system.cpu.statFuBusy::SimdStridedLoad              0      0.00%    100.00% # attempts to use FU when none available (Count)
system.cpu.statFuBusy::SimdStridedStore             0      0.00%    100.00% # attempts to use FU when none available (Count)
system.cpu.statFuBusy::SimdIndexedLoad              0      0.00%    100.00% # attempts to use FU when none available (Count)
system.cpu.statFuBusy::SimdIndexedStore             0      0.00%    100.00% # attempts to use FU when none available (Count)
system.cpu.statFuBusy::SimdWholeRegisterLoad            0      0.00%    100.00% # attempts to use FU when none available (Count)
system.cpu.statFuBusy::SimdWholeRegisterStore            0      0.00%    100.00% # attempts to use FU when none available (Count)
system.cpu.statFuBusy::SimdUnitStrideFaultOnlyFirstLoad            0      0.00%    100.00% # attempts to use FU when none available (Count)
system.cpu.statFuBusy::SimdUnitStrideSegmentedLoad            0      0.00%    100.00% # attempts to use FU when none available (Count)
system.cpu.statFuBusy::SimdUnitStrideSegmentedStore            0      0.00%    100.00% # attempts to use FU when none available (Count)
system.cpu.statFuBusy::SimdExt                      0      0.00%    100.00% # attempts to use FU when none available (Count)
system.cpu.statFuBusy::SimdFloatExt                 0      0.00%    100.00% # attempts to use FU when none available (Count)
system.cpu.statFuBusy::SimdConfig                   0      0.00%    100.00% # attempts to use FU when none available (Count)
system.cpu.statIssuedInstType_0::No_OpClass        97469      0.50%      0.50% # Number of instructions issued per FU type, per thread (Count)
system.cpu.statIssuedInstType_0::IntAlu      15600419     80.26%     80.77% # Number of instructions issued per FU type, per thread (Count)
system.cpu.statIssuedInstType_0::IntMult         1708      0.01%     80.77% # Number of instructions issued per FU type, per thread (Count)
system.cpu.statIssuedInstType_0::IntDiv        502130      2.58%     83.36% # Number of instructions issued per FU type, per thread (Count)
system.cpu.statIssuedInstType_0::FloatAdd         3871      0.02%     83.38% # Number of instructions issued per FU type, per thread (Count)
system.cpu.statIssuedInstType_0::FloatCmp            0      0.00%     83.38% # Number of instructions issued per FU type, per thread (Count)
system.cpu.statIssuedInstType_0::FloatCvt            0      0.00%     83.38% # Number of instructions issued per FU type, per thread (Count)
system.cpu.statIssuedInstType_0::FloatMult            0      0.00%     83.38% # Number of instructions issued per FU type, per thread (Count)
system.cpu.statIssuedInstType_0::FloatMultAcc            0      0.00%     83.38% # Number of instructions issued per FU type, per thread (Count)
system.cpu.statIssuedInstType_0::FloatDiv            0      0.00%     83.38% # Number of instructions issued per FU type, per thread (Count)
system.cpu.statIssuedInstType_0::FloatMisc            0      0.00%     83.38% # Number of instructions issued per FU type, per thread (Count)
system.cpu.statIssuedInstType_0::FloatSqrt            0      0.00%     83.38% # Number of instructions issued per FU type, per thread (Count)
system.cpu.statIssuedInstType_0::SimdAdd        36526      0.19%     83.57% # Number of instructions issued per FU type, per thread (Count)
system.cpu.statIssuedInstType_0::SimdAddAcc            0      0.00%     83.57% # Number of instructions issued per FU type, per thread (Count)
system.cpu.statIssuedInstType_0::SimdAlu       295831      1.52%     85.09% # Number of instructions issued per FU type, per thread (Count)
system.cpu.statIssuedInstType_0::SimdCmp           78      0.00%     85.09% # Number of instructions issued per FU type, per thread (Count)
system.cpu.statIssuedInstType_0::SimdCvt        19633      0.10%     85.19% # Number of instructions issued per FU type, per thread (Count)
system.cpu.statIssuedInstType_0::SimdMisc        48309      0.25%     85.44% # Number of instructions issued per FU type, per thread (Count)
system.cpu.statIssuedInstType_0::SimdMult            0      0.00%     85.44% # Number of instructions issued per FU type, per thread (Count)
system.cpu.statIssuedInstType_0::SimdMultAcc            0      0.00%     85.44% # Number of instructions issued per FU type, per thread (Count)
system.cpu.statIssuedInstType_0::SimdMatMultAcc            0      0.00%     85.44% # Number of instructions issued per FU type, per thread (Count)
system.cpu.statIssuedInstType_0::SimdShift        34235      0.18%     85.61% # Number of instructions issued per FU type, per thread (Count)
system.cpu.statIssuedInstType_0::SimdShiftAcc            0      0.00%     85.61% # Number of instructions issued per FU type, per thread (Count)
system.cpu.statIssuedInstType_0::SimdDiv            0      0.00%     85.61% # Number of instructions issued per FU type, per thread (Count)
system.cpu.statIssuedInstType_0::SimdSqrt            0      0.00%     85.61% # Number of instructions issued per FU type, per thread (Count)
system.cpu.statIssuedInstType_0::SimdFloatAdd            1      0.00%     85.61% # Number of instructions issued per FU type, per thread (Count)
system.cpu.statIssuedInstType_0::SimdFloatAlu            0      0.00%     85.61% # Number of instructions issued per FU type, per thread (Count)
system.cpu.statIssuedInstType_0::SimdFloatCmp            0      0.00%     85.61% # Number of instructions issued per FU type, per thread (Count)
system.cpu.statIssuedInstType_0::SimdFloatCvt           49      0.00%     85.61% # Number of instructions issued per FU type, per thread (Count)
system.cpu.statIssuedInstType_0::SimdFloatDiv           17      0.00%     85.61% # Number of instructions issued per FU type, per thread (Count)
system.cpu.statIssuedInstType_0::SimdFloatMisc            0      0.00%     85.61% # Number of instructions issued per FU type, per thread (Count)
system.cpu.statIssuedInstType_0::SimdFloatMult            0      0.00%     85.61% # Number of instructions issued per FU type, per thread (Count)
system.cpu.statIssuedInstType_0::SimdFloatMultAcc            0      0.00%     85.61% # Number of instructions issued per FU type, per thread (Count)
system.cpu.statIssuedInstType_0::SimdFloatMatMultAcc            0      0.00%     85.61% # Number of instructions issued per FU type, per thread (Count)
system.cpu.statIssuedInstType_0::SimdFloatSqrt            0      0.00%     85.61% # Number of instructions issued per FU type, per thread (Count)
system.cpu.statIssuedInstType_0::SimdReduceAdd            0      0.00%     85.61% # Number of instructions issued per FU type, per thread (Count)
system.cpu.statIssuedInstType_0::SimdReduceAlu            0      0.00%     85.61% # Number of instructions issued per FU type, per thread (Count)
system.cpu.statIssuedInstType_0::SimdReduceCmp            0      0.00%     85.61% # Number of instructions issued per FU type, per thread (Count)
system.cpu.statIssuedInstType_0::SimdFloatReduceAdd            0      0.00%     85.61% # Number of instructions issued per FU type, per thread (Count)
system.cpu.statIssuedInstType_0::SimdFloatReduceCmp            0      0.00%     85.61% # Number of instructions issued per FU type, per thread (Count)
system.cpu.statIssuedInstType_0::SimdAes            0      0.00%     85.61% # Number of instructions issued per FU type, per thread (Count)
system.cpu.statIssuedInstType_0::SimdAesMix            0      0.00%     85.61% # Number of instructions issued per FU type, per thread (Count)
system.cpu.statIssuedInstType_0::SimdSha1Hash            0      0.00%     85.61% # Number of instructions issued per FU type, per thread (Count)
system.cpu.statIssuedInstType_0::SimdSha1Hash2            0      0.00%     85.61% # Number of instructions issued per FU type, per thread (Count)
system.cpu.statIssuedInstType_0::SimdSha256Hash            0      0.00%     85.61% # Number of instructions issued per FU type, per thread (Count)
system.cpu.statIssuedInstType_0::SimdSha256Hash2            0      0.00%     85.61% # Number of instructions issued per FU type, per thread (Count)
system.cpu.statIssuedInstType_0::SimdShaSigma2            0      0.00%     85.61% # Number of instructions issued per FU type, per thread (Count)
system.cpu.statIssuedInstType_0::SimdShaSigma3            0      0.00%     85.61% # Number of instructions issued per FU type, per thread (Count)
system.cpu.statIssuedInstType_0::SimdPredAlu            0      0.00%     85.61% # Number of instructions issued per FU type, per thread (Count)
system.cpu.statIssuedInstType_0::Matrix             0      0.00%     85.61% # Number of instructions issued per FU type, per thread (Count)
system.cpu.statIssuedInstType_0::MatrixMov            0      0.00%     85.61% # Number of instructions issued per FU type, per thread (Count)
system.cpu.statIssuedInstType_0::MatrixOP            0      0.00%     85.61% # Number of instructions issued per FU type, per thread (Count)
system.cpu.statIssuedInstType_0::MemRead      2026656     10.43%     96.04% # Number of instructions issued per FU type, per thread (Count)
system.cpu.statIssuedInstType_0::MemWrite       544883      2.80%     98.85% # Number of instructions issued per FU type, per thread (Count)
system.cpu.statIssuedInstType_0::FloatMemRead       159508      0.82%     99.67% # Number of instructions issued per FU type, per thread (Count)
system.cpu.statIssuedInstType_0::FloatMemWrite        64899      0.33%    100.00% # Number of instructions issued per FU type, per thread (Count)
system.cpu.statIssuedInstType_0::IprAccess            0      0.00%    100.00% # Number of instructions issued per FU type, per thread (Count)
system.cpu.statIssuedInstType_0::InstPrefetch            0      0.00%    100.00% # Number of instructions issued per FU type, per thread (Count)
system.cpu.statIssuedInstType_0::SimdUnitStrideLoad            0      0.00%    100.00% # Number of instructions issued per FU type, per thread (Count)
system.cpu.statIssuedInstType_0::SimdUnitStrideStore            0      0.00%    100.00% # Number of instructions issued per FU type, per thread (Count)
system.cpu.statIssuedInstType_0::SimdUnitStrideMaskLoad            0      0.00%    100.00% # Number of instructions issued per FU type, per thread (Count)
system.cpu.statIssuedInstType_0::SimdUnitStrideMaskStore            0      0.00%    100.00% # Number of instructions issued per FU type, per thread (Count)
system.cpu.statIssuedInstType_0::SimdStridedLoad            0      0.00%    100.00% # Number of instructions issued per FU type, per thread (Count)
system.cpu.statIssuedInstType_0::SimdStridedStore            0      0.00%    100.00% # Number of instructions issued per FU type, per thread (Count)
system.cpu.statIssuedInstType_0::SimdIndexedLoad            0      0.00%    100.00% # Number of instructions issued per FU type, per thread (Count)
system.cpu.statIssuedInstType_0::SimdIndexedStore            0      0.00%    100.00% # Number of instructions issued per FU type, per thread (Count)
system.cpu.statIssuedInstType_0::SimdWholeRegisterLoad            0      0.00%    100.00% # Number of instructions issued per FU type, per thread (Count)
system.cpu.statIssuedInstType_0::SimdWholeRegisterStore            0      0.00%    100.00% # Number of instructions issued per FU type, per thread (Count)
system.cpu.statIssuedInstType_0::SimdUnitStrideFaultOnlyFirstLoad            0      0.00%    100.00% # Number of instructions issued per FU type, per thread (Count)
system.cpu.statIssuedInstType_0::SimdUnitStrideSegmentedLoad            0      0.00%    100.00% # Number of instructions issued per FU type, per thread (Count)
system.cpu.statIssuedInstType_0::SimdUnitStrideSegmentedStore            0      0.00%    100.00% # Number of instructions issued per FU type, per thread (Count)
system.cpu.statIssuedInstType_0::SimdExt            0      0.00%    100.00% # Number of instructions issued per FU type, per thread (Count)
system.cpu.statIssuedInstType_0::SimdFloatExt            0      0.00%    100.00% # Number of instructions issued per FU type, per thread (Count)
system.cpu.statIssuedInstType_0::SimdConfig            0      0.00%    100.00% # Number of instructions issued per FU type, per thread (Count)
system.cpu.statIssuedInstType_0::total       19436222                       # Number of instructions issued per FU type, per thread (Count)
system.cpu.issueRate                         1.565022                       # Inst issue rate ((Count/Cycle))
system.cpu.fuBusy                                   5                       # FU busy when requested (Count)
system.cpu.fuBusyRate                        0.000000                       # FU busy rate (busy events/executed inst) ((Count/Count))
system.cpu.intInstQueueReads                 49481402                       # Number of integer instruction queue reads (Count)
system.cpu.intInstQueueWrites                24599906                       # Number of integer instruction queue writes (Count)
system.cpu.intInstQueueWakeupAccesses        17761774                       # Number of integer instruction queue wakeup accesses (Count)
system.cpu.fpInstQueueReads                   1652239                       # Number of floating instruction queue reads (Count)
system.cpu.fpInstQueueWrites                   849681                       # Number of floating instruction queue writes (Count)
system.cpu.fpInstQueueWakeupAccesses           818569                       # Number of floating instruction queue wakeup accesses (Count)
system.cpu.vecInstQueueReads                        0                       # Number of vector instruction queue reads (Count)
system.cpu.vecInstQueueWrites                       0                       # Number of vector instruction queue writes (Count)
system.cpu.vecInstQueueWakeupAccesses               0                       # Number of vector instruction queue wakeup accesses (Count)
system.cpu.intAluAccesses                    18512638                       # Number of integer alu accesses (Count)
system.cpu.fpAluAccesses                       826120                       # Number of floating point alu accesses (Count)
system.cpu.vecAluAccesses                           0                       # Number of vector alu accesses (Count)
system.cpu.numSquashedInsts                    740222                       # Number of squashed instructions skipped in execute (Count)
system.cpu.numSwp                                   0                       # Number of swp insts executed (Count)
system.cpu.timesIdled                            1445                       # Number of times that the entire CPU went into an idle state and unscheduled itself (Count)
system.cpu.idleCycles                          157949                       # Total number of cycles that the CPU has spent unscheduled due to idling (Cycle)
system.cpu.MemDepUnit__0.insertedLoads        2278024                       # Number of loads inserted to the mem dependence unit. (Count)
system.cpu.MemDepUnit__0.insertedStores        646947                       # Number of stores inserted to the mem dependence unit. (Count)
system.cpu.MemDepUnit__0.conflictingLoads       306678                       # Number of conflicting loads. (Count)
system.cpu.MemDepUnit__0.conflictingStores        98795                       # Number of conflicting stores. (Count)
system.cpu.MemDepUnit__0.falseDependencies          285                       # Number of times load's address didn't match predicted store's address (Count)
system.cpu.MemDepUnit__0.correctPredictions         7058                       # Number of times load's address did match predicted store's address (Count)
system.cpu.MemDepUnit__0.LFSTReads                  0                       # Number of LFST reads. (Count)
system.cpu.MemDepUnit__0.LFSTWrites                 0                       # Number of LFST writes. (Count)
system.cpu.MemDepUnit__0.readsPath1               619                       # Number of reads to path table 1. (Count)
system.cpu.MemDepUnit__0.readsPath2              6597                       # Number of reads to path table 2. (Count)
system.cpu.MemDepUnit__0.readsPath3               254                       # Number of reads to path table 3. (Count)
system.cpu.MemDepUnit__0.readsPath4                 0                       # Number of reads to path table 4. (Count)
system.cpu.MemDepUnit__0.readsPath5                 0                       # Number of reads to path table 5. (Count)
system.cpu.MemDepUnit__0.readsPath6                 0                       # Number of reads to path table 6. (Count)
system.cpu.MemDepUnit__0.readsPath7                 0                       # Number of reads to path table 7. (Count)
system.cpu.MemDepUnit__0.readsPath8                 0                       # Number of reads to path table 8. (Count)
system.cpu.MemDepUnit__0.writesPath1             4168                       # Number of writes to path table 1. (Count)
system.cpu.MemDepUnit__0.writesPath2            17642                       # Number of writes to path table 2. (Count)
system.cpu.MemDepUnit__0.writesPath3              771                       # Number of writes to path table 3. (Count)
system.cpu.MemDepUnit__0.writesPath4                0                       # Number of writes to path table 4. (Count)
system.cpu.MemDepUnit__0.writesPath5                0                       # Number of writes to path table 5. (Count)
system.cpu.MemDepUnit__0.writesPath6                0                       # Number of writes to path table 6. (Count)
system.cpu.MemDepUnit__0.writesPath7                0                       # Number of writes to path table 7. (Count)
system.cpu.MemDepUnit__0.writesPath8                0                       # Number of writes to path table 8. (Count)
system.cpu.MemDepUnit__1.insertedLoads              0                       # Number of loads inserted to the mem dependence unit. (Count)
system.cpu.MemDepUnit__1.insertedStores             0                       # Number of stores inserted to the mem dependence unit. (Count)
system.cpu.MemDepUnit__1.conflictingLoads            0                       # Number of conflicting loads. (Count)
system.cpu.MemDepUnit__1.conflictingStores            0                       # Number of conflicting stores. (Count)
system.cpu.MemDepUnit__1.falseDependencies            0                       # Number of times load's address didn't match predicted store's address (Count)
system.cpu.MemDepUnit__1.correctPredictions            0                       # Number of times load's address did match predicted store's address (Count)
system.cpu.MemDepUnit__1.LFSTReads                  0                       # Number of LFST reads. (Count)
system.cpu.MemDepUnit__1.LFSTWrites                 0                       # Number of LFST writes. (Count)
system.cpu.MemDepUnit__1.readsPath1                 0                       # Number of reads to path table 1. (Count)
system.cpu.MemDepUnit__1.readsPath2                 0                       # Number of reads to path table 2. (Count)
system.cpu.MemDepUnit__1.readsPath3                 0                       # Number of reads to path table 3. (Count)
system.cpu.MemDepUnit__1.readsPath4                 0                       # Number of reads to path table 4. (Count)
system.cpu.MemDepUnit__1.readsPath5                 0                       # Number of reads to path table 5. (Count)
system.cpu.MemDepUnit__1.readsPath6                 0                       # Number of reads to path table 6. (Count)
system.cpu.MemDepUnit__1.readsPath7                 0                       # Number of reads to path table 7. (Count)
system.cpu.MemDepUnit__1.readsPath8                 0                       # Number of reads to path table 8. (Count)
system.cpu.MemDepUnit__1.writesPath1                0                       # Number of writes to path table 1. (Count)
system.cpu.MemDepUnit__1.writesPath2                0                       # Number of writes to path table 2. (Count)
system.cpu.MemDepUnit__1.writesPath3                0                       # Number of writes to path table 3. (Count)
system.cpu.MemDepUnit__1.writesPath4                0                       # Number of writes to path table 4. (Count)
system.cpu.MemDepUnit__1.writesPath5                0                       # Number of writes to path table 5. (Count)
system.cpu.MemDepUnit__1.writesPath6                0                       # Number of writes to path table 6. (Count)
system.cpu.MemDepUnit__1.writesPath7                0                       # Number of writes to path table 7. (Count)
system.cpu.MemDepUnit__1.writesPath8                0                       # Number of writes to path table 8. (Count)
system.cpu.MemDepUnit__2.insertedLoads              0                       # Number of loads inserted to the mem dependence unit. (Count)
system.cpu.MemDepUnit__2.insertedStores             0                       # Number of stores inserted to the mem dependence unit. (Count)
system.cpu.MemDepUnit__2.conflictingLoads            0                       # Number of conflicting loads. (Count)
system.cpu.MemDepUnit__2.conflictingStores            0                       # Number of conflicting stores. (Count)
system.cpu.MemDepUnit__2.falseDependencies            0                       # Number of times load's address didn't match predicted store's address (Count)
system.cpu.MemDepUnit__2.correctPredictions            0                       # Number of times load's address did match predicted store's address (Count)
system.cpu.MemDepUnit__2.LFSTReads                  0                       # Number of LFST reads. (Count)
system.cpu.MemDepUnit__2.LFSTWrites                 0                       # Number of LFST writes. (Count)
system.cpu.MemDepUnit__2.readsPath1                 0                       # Number of reads to path table 1. (Count)
system.cpu.MemDepUnit__2.readsPath2                 0                       # Number of reads to path table 2. (Count)
system.cpu.MemDepUnit__2.readsPath3                 0                       # Number of reads to path table 3. (Count)
system.cpu.MemDepUnit__2.readsPath4                 0                       # Number of reads to path table 4. (Count)
system.cpu.MemDepUnit__2.readsPath5                 0                       # Number of reads to path table 5. (Count)
system.cpu.MemDepUnit__2.readsPath6                 0                       # Number of reads to path table 6. (Count)
system.cpu.MemDepUnit__2.readsPath7                 0                       # Number of reads to path table 7. (Count)
system.cpu.MemDepUnit__2.readsPath8                 0                       # Number of reads to path table 8. (Count)
system.cpu.MemDepUnit__2.writesPath1                0                       # Number of writes to path table 1. (Count)
system.cpu.MemDepUnit__2.writesPath2                0                       # Number of writes to path table 2. (Count)
system.cpu.MemDepUnit__2.writesPath3                0                       # Number of writes to path table 3. (Count)
system.cpu.MemDepUnit__2.writesPath4                0                       # Number of writes to path table 4. (Count)
system.cpu.MemDepUnit__2.writesPath5                0                       # Number of writes to path table 5. (Count)
system.cpu.MemDepUnit__2.writesPath6                0                       # Number of writes to path table 6. (Count)
system.cpu.MemDepUnit__2.writesPath7                0                       # Number of writes to path table 7. (Count)
system.cpu.MemDepUnit__2.writesPath8                0                       # Number of writes to path table 8. (Count)
system.cpu.MemDepUnit__3.insertedLoads              0                       # Number of loads inserted to the mem dependence unit. (Count)
system.cpu.MemDepUnit__3.insertedStores             0                       # Number of stores inserted to the mem dependence unit. (Count)
system.cpu.MemDepUnit__3.conflictingLoads            0                       # Number of conflicting loads. (Count)
system.cpu.MemDepUnit__3.conflictingStores            0                       # Number of conflicting stores. (Count)
system.cpu.MemDepUnit__3.falseDependencies            0                       # Number of times load's address didn't match predicted store's address (Count)
system.cpu.MemDepUnit__3.correctPredictions            0                       # Number of times load's address did match predicted store's address (Count)
system.cpu.MemDepUnit__3.LFSTReads                  0                       # Number of LFST reads. (Count)
system.cpu.MemDepUnit__3.LFSTWrites                 0                       # Number of LFST writes. (Count)
system.cpu.MemDepUnit__3.readsPath1                 0                       # Number of reads to path table 1. (Count)
system.cpu.MemDepUnit__3.readsPath2                 0                       # Number of reads to path table 2. (Count)
system.cpu.MemDepUnit__3.readsPath3                 0                       # Number of reads to path table 3. (Count)
system.cpu.MemDepUnit__3.readsPath4                 0                       # Number of reads to path table 4. (Count)
system.cpu.MemDepUnit__3.readsPath5                 0                       # Number of reads to path table 5. (Count)
system.cpu.MemDepUnit__3.readsPath6                 0                       # Number of reads to path table 6. (Count)
system.cpu.MemDepUnit__3.readsPath7                 0                       # Number of reads to path table 7. (Count)
system.cpu.MemDepUnit__3.readsPath8                 0                       # Number of reads to path table 8. (Count)
system.cpu.MemDepUnit__3.writesPath1                0                       # Number of writes to path table 1. (Count)
system.cpu.MemDepUnit__3.writesPath2                0                       # Number of writes to path table 2. (Count)
system.cpu.MemDepUnit__3.writesPath3                0                       # Number of writes to path table 3. (Count)
system.cpu.MemDepUnit__3.writesPath4                0                       # Number of writes to path table 4. (Count)
system.cpu.MemDepUnit__3.writesPath5                0                       # Number of writes to path table 5. (Count)
system.cpu.MemDepUnit__3.writesPath6                0                       # Number of writes to path table 6. (Count)
system.cpu.MemDepUnit__3.writesPath7                0                       # Number of writes to path table 7. (Count)
system.cpu.MemDepUnit__3.writesPath8                0                       # Number of writes to path table 8. (Count)
system.cpu.branchPred.lookups_0::NoBranch           14      0.00%      0.00% # Number of BP lookups (Count)
system.cpu.branchPred.lookups_0::Return         34526      0.83%      0.83% # Number of BP lookups (Count)
system.cpu.branchPred.lookups_0::CallDirect        35519      0.85%      1.68% # Number of BP lookups (Count)
system.cpu.branchPred.lookups_0::CallIndirect          450      0.01%      1.69% # Number of BP lookups (Count)
system.cpu.branchPred.lookups_0::DirectCond      3361310     80.58%     82.27% # Number of BP lookups (Count)
system.cpu.branchPred.lookups_0::DirectUncond       711758     17.06%     99.34% # Number of BP lookups (Count)
system.cpu.branchPred.lookups_0::IndirectCond            0      0.00%     99.34% # Number of BP lookups (Count)
system.cpu.branchPred.lookups_0::IndirectUncond        27736      0.66%    100.00% # Number of BP lookups (Count)
system.cpu.branchPred.lookups_0::total        4171313                       # Number of BP lookups (Count)
system.cpu.branchPred.squashes_0::NoBranch           14      0.00%      0.00% # Number of branches that got squashed (completely removed) as an earlier branch was mispredicted. (Count)
system.cpu.branchPred.squashes_0::Return         9952      0.46%      0.46% # Number of branches that got squashed (completely removed) as an earlier branch was mispredicted. (Count)
system.cpu.branchPred.squashes_0::CallDirect        11105      0.51%      0.97% # Number of branches that got squashed (completely removed) as an earlier branch was mispredicted. (Count)
system.cpu.branchPred.squashes_0::CallIndirect          285      0.01%      0.98% # Number of branches that got squashed (completely removed) as an earlier branch was mispredicted. (Count)
system.cpu.branchPred.squashes_0::DirectCond      1702566     78.50%     79.48% # Number of branches that got squashed (completely removed) as an earlier branch was mispredicted. (Count)
system.cpu.branchPred.squashes_0::DirectUncond       433883     20.00%     99.49% # Number of branches that got squashed (completely removed) as an earlier branch was mispredicted. (Count)
system.cpu.branchPred.squashes_0::IndirectCond            0      0.00%     99.49% # Number of branches that got squashed (completely removed) as an earlier branch was mispredicted. (Count)
system.cpu.branchPred.squashes_0::IndirectUncond        11108      0.51%    100.00% # Number of branches that got squashed (completely removed) as an earlier branch was mispredicted. (Count)
system.cpu.branchPred.squashes_0::total       2168913                       # Number of branches that got squashed (completely removed) as an earlier branch was mispredicted. (Count)
system.cpu.branchPred.corrected_0::NoBranch            3      0.00%      0.00% # Number of branches that got corrected but not yet commited. Branches get corrected by decode or after execute. Also a branch misprediction can be detected out-of-order. Therefore, a corrected branch might not end up beeing committed in case an even earlier branch was mispredicted (Count)
system.cpu.branchPred.corrected_0::Return           14      0.00%      0.00% # Number of branches that got corrected but not yet commited. Branches get corrected by decode or after execute. Also a branch misprediction can be detected out-of-order. Therefore, a corrected branch might not end up beeing committed in case an even earlier branch was mispredicted (Count)
system.cpu.branchPred.corrected_0::CallDirect          816      0.13%      0.13% # Number of branches that got corrected but not yet commited. Branches get corrected by decode or after execute. Also a branch misprediction can be detected out-of-order. Therefore, a corrected branch might not end up beeing committed in case an even earlier branch was mispredicted (Count)
system.cpu.branchPred.corrected_0::CallIndirect          124      0.02%      0.15% # Number of branches that got corrected but not yet commited. Branches get corrected by decode or after execute. Also a branch misprediction can be detected out-of-order. Therefore, a corrected branch might not end up beeing committed in case an even earlier branch was mispredicted (Count)
system.cpu.branchPred.corrected_0::DirectCond       435555     68.41%     68.56% # Number of branches that got corrected but not yet commited. Branches get corrected by decode or after execute. Also a branch misprediction can be detected out-of-order. Therefore, a corrected branch might not end up beeing committed in case an even earlier branch was mispredicted (Count)
system.cpu.branchPred.corrected_0::DirectUncond       199417     31.32%     99.88% # Number of branches that got corrected but not yet commited. Branches get corrected by decode or after execute. Also a branch misprediction can be detected out-of-order. Therefore, a corrected branch might not end up beeing committed in case an even earlier branch was mispredicted (Count)
system.cpu.branchPred.corrected_0::IndirectCond            0      0.00%     99.88% # Number of branches that got corrected but not yet commited. Branches get corrected by decode or after execute. Also a branch misprediction can be detected out-of-order. Therefore, a corrected branch might not end up beeing committed in case an even earlier branch was mispredicted (Count)
system.cpu.branchPred.corrected_0::IndirectUncond          770      0.12%    100.00% # Number of branches that got corrected but not yet commited. Branches get corrected by decode or after execute. Also a branch misprediction can be detected out-of-order. Therefore, a corrected branch might not end up beeing committed in case an even earlier branch was mispredicted (Count)
system.cpu.branchPred.corrected_0::total       636699                       # Number of branches that got corrected but not yet commited. Branches get corrected by decode or after execute. Also a branch misprediction can be detected out-of-order. Therefore, a corrected branch might not end up beeing committed in case an even earlier branch was mispredicted (Count)
system.cpu.branchPred.earlyResteers_0::NoBranch            0                       # Number of branches that got redirected after decode. (Count)
system.cpu.branchPred.earlyResteers_0::Return            0                       # Number of branches that got redirected after decode. (Count)
system.cpu.branchPred.earlyResteers_0::CallDirect            0                       # Number of branches that got redirected after decode. (Count)
system.cpu.branchPred.earlyResteers_0::CallIndirect            0                       # Number of branches that got redirected after decode. (Count)
system.cpu.branchPred.earlyResteers_0::DirectCond            0                       # Number of branches that got redirected after decode. (Count)
system.cpu.branchPred.earlyResteers_0::DirectUncond            0                       # Number of branches that got redirected after decode. (Count)
system.cpu.branchPred.earlyResteers_0::IndirectCond            0                       # Number of branches that got redirected after decode. (Count)
system.cpu.branchPred.earlyResteers_0::IndirectUncond            0                       # Number of branches that got redirected after decode. (Count)
system.cpu.branchPred.earlyResteers_0::total            0                       # Number of branches that got redirected after decode. (Count)
system.cpu.branchPred.committed_0::NoBranch            0      0.00%      0.00% # Number of branches finally committed  (Count)
system.cpu.branchPred.committed_0::Return        24574      1.23%      1.23% # Number of branches finally committed  (Count)
system.cpu.branchPred.committed_0::CallDirect        24414      1.22%      2.45% # Number of branches finally committed  (Count)
system.cpu.branchPred.committed_0::CallIndirect          165      0.01%      2.45% # Number of branches finally committed  (Count)
system.cpu.branchPred.committed_0::DirectCond      1658743     82.84%     85.29% # Number of branches finally committed  (Count)
system.cpu.branchPred.committed_0::DirectUncond       277875     13.88%     99.17% # Number of branches finally committed  (Count)
system.cpu.branchPred.committed_0::IndirectCond            0      0.00%     99.17% # Number of branches finally committed  (Count)
system.cpu.branchPred.committed_0::IndirectUncond        16628      0.83%    100.00% # Number of branches finally committed  (Count)
system.cpu.branchPred.committed_0::total      2002399                       # Number of branches finally committed  (Count)
system.cpu.branchPred.mispredicted_0::NoBranch            0      0.00%      0.00% # Number of committed branches that were mispredicted. (Count)
system.cpu.branchPred.mispredicted_0::Return            3      0.00%      0.00% # Number of committed branches that were mispredicted. (Count)
system.cpu.branchPred.mispredicted_0::CallDirect          552      0.13%      0.13% # Number of committed branches that were mispredicted. (Count)
system.cpu.branchPred.mispredicted_0::CallIndirect          119      0.03%      0.16% # Number of committed branches that were mispredicted. (Count)
system.cpu.branchPred.mispredicted_0::DirectCond       342059     82.39%     82.55% # Number of committed branches that were mispredicted. (Count)
system.cpu.branchPred.mispredicted_0::DirectUncond        71690     17.27%     99.82% # Number of committed branches that were mispredicted. (Count)
system.cpu.branchPred.mispredicted_0::IndirectCond            0      0.00%     99.82% # Number of committed branches that were mispredicted. (Count)
system.cpu.branchPred.mispredicted_0::IndirectUncond          760      0.18%    100.00% # Number of committed branches that were mispredicted. (Count)
system.cpu.branchPred.mispredicted_0::total       415183                       # Number of committed branches that were mispredicted. (Count)
system.cpu.branchPred.targetProvider_0::NoTarget      1443072     34.60%     34.60% # The component providing the target for taken branches (Count)
system.cpu.branchPred.targetProvider_0::BTB      2674161     64.11%     98.70% # The component providing the target for taken branches (Count)
system.cpu.branchPred.targetProvider_0::RAS        34525      0.83%     99.53% # The component providing the target for taken branches (Count)
system.cpu.branchPred.targetProvider_0::Indirect        19555      0.47%    100.00% # The component providing the target for taken branches (Count)
system.cpu.branchPred.targetProvider_0::total      4171313                       # The component providing the target for taken branches (Count)
system.cpu.branchPred.targetWrong_0::NoBranch       132935     21.46%     21.46% # Number of branches where the target was incorrect or not available at prediction time. (Count)
system.cpu.branchPred.targetWrong_0::Return       485903     78.45%     99.91% # Number of branches where the target was incorrect or not available at prediction time. (Count)
system.cpu.branchPred.targetWrong_0::CallDirect           14      0.00%     99.91% # Number of branches where the target was incorrect or not available at prediction time. (Count)
system.cpu.branchPred.targetWrong_0::CallIndirect          554      0.09%    100.00% # Number of branches where the target was incorrect or not available at prediction time. (Count)
system.cpu.branchPred.targetWrong_0::DirectCond            0      0.00%    100.00% # Number of branches where the target was incorrect or not available at prediction time. (Count)
system.cpu.branchPred.targetWrong_0::DirectUncond            0      0.00%    100.00% # Number of branches where the target was incorrect or not available at prediction time. (Count)
system.cpu.branchPred.targetWrong_0::IndirectCond            0      0.00%    100.00% # Number of branches where the target was incorrect or not available at prediction time. (Count)
system.cpu.branchPred.targetWrong_0::IndirectUncond            0      0.00%    100.00% # Number of branches where the target was incorrect or not available at prediction time. (Count)
system.cpu.branchPred.targetWrong_0::total       619406                       # Number of branches where the target was incorrect or not available at prediction time. (Count)
system.cpu.branchPred.condPredicted           3361324                       # Number of conditional branches predicted (Count)
system.cpu.branchPred.condPredictedTaken      1933336                       # Number of conditional branches predicted as taken (Count)
system.cpu.branchPred.condIncorrect            636699                       # Number of conditional branches incorrect (Count)
system.cpu.branchPred.predTakenBTBMiss           1605                       # Number of branches predicted taken but missed in BTB (Count)
system.cpu.branchPred.NotTakenMispredicted       490853                       # Number branches predicted 'not taken' but turned out to be taken (Count)
system.cpu.branchPred.TakenMispredicted        145846                       # Number branches predicted taken but are actually not taken (Count)
system.cpu.branchPred.BTBLookups              4171313                       # Number of BTB lookups (Count)
system.cpu.branchPred.BTBUpdates               489942                       # Number of BTB updates (Count)
system.cpu.branchPred.BTBHits                 3701085                       # Number of BTB hits (Count)
system.cpu.branchPred.BTBHitRatio            0.887271                       # BTB Hit Ratio (Ratio)
system.cpu.branchPred.BTBMispredicted            2240                       # Number BTB mispredictions. No target found or target wrong (Count)
system.cpu.branchPred.indirectLookups           28186                       # Number of indirect predictor lookups. (Count)
system.cpu.branchPred.indirectHits              19555                       # Number of indirect target hits. (Count)
system.cpu.branchPred.indirectMisses             8631                       # Number of indirect misses. (Count)
system.cpu.branchPred.indirectMispredicted            0                       # Number of mispredicted indirect branches. (Count)
system.cpu.branchPred.BTB.lookups::NoBranch            0                       # Number of BTB lookups (Count)
system.cpu.branchPred.BTB.lookups::Return            0                       # Number of BTB lookups (Count)
system.cpu.branchPred.BTB.lookups::CallDirect            0                       # Number of BTB lookups (Count)
system.cpu.branchPred.BTB.lookups::CallIndirect            0                       # Number of BTB lookups (Count)
system.cpu.branchPred.BTB.lookups::DirectCond            0                       # Number of BTB lookups (Count)
system.cpu.branchPred.BTB.lookups::DirectUncond            0                       # Number of BTB lookups (Count)
system.cpu.branchPred.BTB.lookups::IndirectCond            0                       # Number of BTB lookups (Count)
system.cpu.branchPred.BTB.lookups::IndirectUncond            0                       # Number of BTB lookups (Count)
system.cpu.branchPred.BTB.lookups::total            0                       # Number of BTB lookups (Count)
system.cpu.branchPred.BTB.misses::NoBranch            0                       # Number of BTB misses (Count)
system.cpu.branchPred.BTB.misses::Return            0                       # Number of BTB misses (Count)
system.cpu.branchPred.BTB.misses::CallDirect            0                       # Number of BTB misses (Count)
system.cpu.branchPred.BTB.misses::CallIndirect            0                       # Number of BTB misses (Count)
system.cpu.branchPred.BTB.misses::DirectCond            0                       # Number of BTB misses (Count)
system.cpu.branchPred.BTB.misses::DirectUncond            0                       # Number of BTB misses (Count)
system.cpu.branchPred.BTB.misses::IndirectCond            0                       # Number of BTB misses (Count)
system.cpu.branchPred.BTB.misses::IndirectUncond            0                       # Number of BTB misses (Count)
system.cpu.branchPred.BTB.misses::total             0                       # Number of BTB misses (Count)
system.cpu.branchPred.BTB.updates::NoBranch            0                       # Number of BTB updates (Count)
system.cpu.branchPred.BTB.updates::Return            0                       # Number of BTB updates (Count)
system.cpu.branchPred.BTB.updates::CallDirect            0                       # Number of BTB updates (Count)
system.cpu.branchPred.BTB.updates::CallIndirect            0                       # Number of BTB updates (Count)
system.cpu.branchPred.BTB.updates::DirectCond            0                       # Number of BTB updates (Count)
system.cpu.branchPred.BTB.updates::DirectUncond            0                       # Number of BTB updates (Count)
system.cpu.branchPred.BTB.updates::IndirectCond            0                       # Number of BTB updates (Count)
system.cpu.branchPred.BTB.updates::IndirectUncond            0                       # Number of BTB updates (Count)
system.cpu.branchPred.BTB.updates::total            0                       # Number of BTB updates (Count)
system.cpu.branchPred.BTB.mispredict::NoBranch            0                       # Number of BTB mispredictions. No target found or target wrong. (Count)
system.cpu.branchPred.BTB.mispredict::Return            0                       # Number of BTB mispredictions. No target found or target wrong. (Count)
system.cpu.branchPred.BTB.mispredict::CallDirect            0                       # Number of BTB mispredictions. No target found or target wrong. (Count)
system.cpu.branchPred.BTB.mispredict::CallIndirect            0                       # Number of BTB mispredictions. No target found or target wrong. (Count)
system.cpu.branchPred.BTB.mispredict::DirectCond            0                       # Number of BTB mispredictions. No target found or target wrong. (Count)
system.cpu.branchPred.BTB.mispredict::DirectUncond            0                       # Number of BTB mispredictions. No target found or target wrong. (Count)
system.cpu.branchPred.BTB.mispredict::IndirectCond            0                       # Number of BTB mispredictions. No target found or target wrong. (Count)
system.cpu.branchPred.BTB.mispredict::IndirectUncond            0                       # Number of BTB mispredictions. No target found or target wrong. (Count)
system.cpu.branchPred.BTB.mispredict::total            0                       # Number of BTB mispredictions. No target found or target wrong. (Count)
system.cpu.branchPred.BTB.conflict                  0                       # Number of conflicts. Tag hit but PC different. (Ratio)
system.cpu.branchPred.BTB.replace_map_0              0                                   0                                   0                                   0                                   0                                   0                                   0                                   0                       # Distribution of replaces (Count)
system.cpu.branchPred.BTB.replace_map_1              0                                   0                                   0                                   0                                   0                                   0                                   0                                   0                       # Distribution of replaces (Count)
system.cpu.branchPred.BTB.replace_map_2              0                                   0                                   0                                   0                                   0                                   0                                   0                                   0                       # Distribution of replaces (Count)
system.cpu.branchPred.BTB.replace_map_3              0                                   0                                   0                                   0                                   0                                   0                                   0                                   0                       # Distribution of replaces (Count)
system.cpu.branchPred.BTB.replace_map_4              0                                   0                                   0                                   0                                   0                                   0                                   0                                   0                       # Distribution of replaces (Count)
system.cpu.branchPred.BTB.replace_map_5              0                                   0                                   0                                   0                                   0                                   0                                   0                                   0                       # Distribution of replaces (Count)
system.cpu.branchPred.BTB.replace_map_6              0                                   0                                   0                                   0                                   0                                   0                                   0                                   0                       # Distribution of replaces (Count)
system.cpu.branchPred.BTB.replace_map_7              0                                   0                                   0                                   0                                   0                                   0                                   0                                   0                       # Distribution of replaces (Count)
system.cpu.branchPred.BTB.replace_map_8              0                                   0                                   0                                   0                                   0                                   0                                   0                                   0                       # Distribution of replaces (Count)
system.cpu.branchPred.BTB.replace_map_9              0                                   0                                   0                                   0                                   0                                   0                                   0                                   0                       # Distribution of replaces (Count)
system.cpu.branchPred.BTB.replace_map_10             0                                   0                                   0                                   0                                   0                                   0                                   0                                   0                       # Distribution of replaces (Count)
system.cpu.branchPred.BTB.replace_map_11             0                                   0                                   0                                   0                                   0                                   0                                   0                                   0                       # Distribution of replaces (Count)
system.cpu.branchPred.BTB.replace_map_12             0                                   0                                   0                                   0                                   0                                   0                                   0                                   0                       # Distribution of replaces (Count)
system.cpu.branchPred.BTB.replace_map_13             0                                   0                                   0                                   0                                   0                                   0                                   0                                   0                       # Distribution of replaces (Count)
system.cpu.branchPred.BTB.replace_map_14             0                                   0                                   0                                   0                                   0                                   0                                   0                                   0                       # Distribution of replaces (Count)
system.cpu.branchPred.BTB.replace_map_15             0                                   0                                   0                                   0                                   0                                   0                                   0                                   0                       # Distribution of replaces (Count)
system.cpu.branchPred.BTB.replace_map_16             0                                   0                                   0                                   0                                   0                                   0                                   0                                   0                       # Distribution of replaces (Count)
system.cpu.branchPred.BTB.replace_map_17             0                                   0                                   0                                   0                                   0                                   0                                   0                                   0                       # Distribution of replaces (Count)
system.cpu.branchPred.BTB.replace_map_18             0                                   0                                   0                                   0                                   0                                   0                                   0                                   0                       # Distribution of replaces (Count)
system.cpu.branchPred.BTB.replace_map_19             0                                   0                                   0                                   0                                   0                                   0                                   0                                   0                       # Distribution of replaces (Count)
system.cpu.branchPred.BTB.replace_map_20             0                                   0                                   0                                   0                                   0                                   0                                   0                                   0                       # Distribution of replaces (Count)
system.cpu.branchPred.BTB.replace_map_21             0                                   0                                   0                                   0                                   0                                   0                                   0                                   0                       # Distribution of replaces (Count)
system.cpu.branchPred.BTB.replace_map_22             0                                   0                                   0                                   0                                   0                                   0                                   0                                   0                       # Distribution of replaces (Count)
system.cpu.branchPred.BTB.replace_map_23             0                                   0                                   0                                   0                                   0                                   0                                   0                                   0                       # Distribution of replaces (Count)
system.cpu.branchPred.BTB.replace_map_24             0                                   0                                   0                                   0                                   0                                   0                                   0                                   0                       # Distribution of replaces (Count)
system.cpu.branchPred.BTB.replace_map_25             0                                   0                                   0                                   0                                   0                                   0                                   0                                   0                       # Distribution of replaces (Count)
system.cpu.branchPred.BTB.replace_map_26             0                                   0                                   0                                   0                                   0                                   0                                   0                                   0                       # Distribution of replaces (Count)
system.cpu.branchPred.BTB.replace_map_27             0                                   0                                   0                                   0                                   0                                   0                                   0                                   0                       # Distribution of replaces (Count)
system.cpu.branchPred.BTB.replace_map_28             0                                   0                                   0                                   0                                   0                                   0                                   0                                   0                       # Distribution of replaces (Count)
system.cpu.branchPred.BTB.replace_map_29             0                                   0                                   0                                   0                                   0                                   0                                   0                                   0                       # Distribution of replaces (Count)
system.cpu.branchPred.BTB.replace_map_30             0                                   0                                   0                                   0                                   0                                   0                                   0                                   0                       # Distribution of replaces (Count)
system.cpu.branchPred.BTB.replace_map_31             0                                   0                                   0                                   0                                   0                                   0                                   0                                   0                       # Distribution of replaces (Count)
system.cpu.branchPred.BTB.replace_map_32             0                                   0                                   0                                   0                                   0                                   0                                   0                                   0                       # Distribution of replaces (Count)
system.cpu.branchPred.BTB.replace_map_33             0                                   0                                   0                                   0                                   0                                   0                                   0                                   0                       # Distribution of replaces (Count)
system.cpu.branchPred.BTB.replace_map_34             0                                   0                                   0                                   0                                   0                                   0                                   0                                   0                       # Distribution of replaces (Count)
system.cpu.branchPred.BTB.replace_map_35             0                                   0                                   0                                   0                                   0                                   0                                   0                                   0                       # Distribution of replaces (Count)
system.cpu.branchPred.BTB.replace_map_36             0                                   0                                   0                                   0                                   0                                   0                                   0                                   0                       # Distribution of replaces (Count)
system.cpu.branchPred.BTB.replace_map_37             0                                   0                                   0                                   0                                   0                                   0                                   0                                   0                       # Distribution of replaces (Count)
system.cpu.branchPred.BTB.replace_map_38             0                                   0                                   0                                   0                                   0                                   0                                   0                                   0                       # Distribution of replaces (Count)
system.cpu.branchPred.BTB.replace_map_39             0                                   0                                   0                                   0                                   0                                   0                                   0                                   0                       # Distribution of replaces (Count)
system.cpu.branchPred.BTB.replace_map_40             0                                   0                                   0                                   0                                   0                                   0                                   0                                   0                       # Distribution of replaces (Count)
system.cpu.branchPred.BTB.replace_map_41             0                                   0                                   0                                   0                                   0                                   0                                   0                                   0                       # Distribution of replaces (Count)
system.cpu.branchPred.BTB.replace_map_42             0                                   0                                   0                                   0                                   0                                   0                                   0                                   0                       # Distribution of replaces (Count)
system.cpu.branchPred.BTB.replace_map_43             0                                   0                                   0                                   0                                   0                                   0                                   0                                   0                       # Distribution of replaces (Count)
system.cpu.branchPred.BTB.replace_map_44             0                                   0                                   0                                   0                                   0                                   0                                   0                                   0                       # Distribution of replaces (Count)
system.cpu.branchPred.BTB.replace_map_45             0                                   0                                   0                                   0                                   0                                   0                                   0                                   0                       # Distribution of replaces (Count)
system.cpu.branchPred.BTB.replace_map_46             0                                   0                                   0                                   0                                   0                                   0                                   0                                   0                       # Distribution of replaces (Count)
system.cpu.branchPred.BTB.replace_map_47             0                                   0                                   0                                   0                                   0                                   0                                   0                                   0                       # Distribution of replaces (Count)
system.cpu.branchPred.BTB.replace_map_48             0                                   0                                   0                                   0                                   0                                   0                                   0                                   0                       # Distribution of replaces (Count)
system.cpu.branchPred.BTB.replace_map_49             0                                   0                                   0                                   0                                   0                                   0                                   0                                   0                       # Distribution of replaces (Count)
system.cpu.branchPred.BTB.replace_map_50             0                                   0                                   0                                   0                                   0                                   0                                   0                                   0                       # Distribution of replaces (Count)
system.cpu.branchPred.BTB.replace_map_51             0                                   0                                   0                                   0                                   0                                   0                                   0                                   0                       # Distribution of replaces (Count)
system.cpu.branchPred.BTB.replace_map_52             0                                   0                                   0                                   0                                   0                                   0                                   0                                   0                       # Distribution of replaces (Count)
system.cpu.branchPred.BTB.replace_map_53             0                                   0                                   0                                   0                                   0                                   0                                   0                                   0                       # Distribution of replaces (Count)
system.cpu.branchPred.BTB.replace_map_54             0                                   0                                   0                                   0                                   0                                   0                                   0                                   0                       # Distribution of replaces (Count)
[...]
system.mem_ctrls.dram.perBankWrBursts::12            0                       # Per bank write bursts (Count)
system.mem_ctrls.dram.perBankWrBursts::13            0                       # Per bank write bursts (Count)
system.mem_ctrls.dram.perBankWrBursts::14            0                       # Per bank write bursts (Count)
system.mem_ctrls.dram.perBankWrBursts::15            0                       # Per bank write bursts (Count)
system.mem_ctrls.dram.totQLat                85972750                       # Total ticks spent queuing (Tick)
system.mem_ctrls.dram.totBusLat              63165000                       # Total ticks spent in databus transfers (Tick)
system.mem_ctrls.dram.totMemAccLat          322841500                       # Total ticks spent from burst creation until serviced by the DRAM (Tick)
system.mem_ctrls.dram.avgQLat                 6805.41                       # Average queueing delay per DRAM burst ((Tick/Count))
system.mem_ctrls.dram.avgBusLat               5000.00                       # Average bus latency per DRAM burst ((Tick/Count))
system.mem_ctrls.dram.avgMemAccLat           25555.41                       # Average memory access latency per DRAM burst ((Tick/Count))
system.mem_ctrls.dram.readRowHits               10492                       # Number of row buffer hits during reads (Count)
system.mem_ctrls.dram.writeRowHits                  0                       # Number of row buffer hits during writes (Count)
system.mem_ctrls.dram.readRowHitRate            83.05                       # Row buffer hit rate for reads (Ratio)
system.mem_ctrls.dram.writeRowHitRate             nan                       # Row buffer hit rate for writes (Ratio)
system.mem_ctrls.dram.bytesPerActivate::samples         2133                       # Bytes accessed per row activation (Byte)
system.mem_ctrls.dram.bytesPerActivate::mean   378.419128                       # Bytes accessed per row activation (Byte)
system.mem_ctrls.dram.bytesPerActivate::gmean   224.763729                       # Bytes accessed per row activation (Byte)
system.mem_ctrls.dram.bytesPerActivate::stdev   369.174159                       # Bytes accessed per row activation (Byte)
system.mem_ctrls.dram.bytesPerActivate::0-127          587     27.52%     27.52% # Bytes accessed per row activation (Byte)
system.mem_ctrls.dram.bytesPerActivate::128-255          589     27.61%     55.13% # Bytes accessed per row activation (Byte)
system.mem_ctrls.dram.bytesPerActivate::256-383          203      9.52%     64.65% # Bytes accessed per row activation (Byte)
system.mem_ctrls.dram.bytesPerActivate::384-511          131      6.14%     70.79% # Bytes accessed per row activation (Byte)
system.mem_ctrls.dram.bytesPerActivate::512-639           95      4.45%     75.25% # Bytes accessed per row activation (Byte)
system.mem_ctrls.dram.bytesPerActivate::640-767           35      1.64%     76.89% # Bytes accessed per row activation (Byte)
system.mem_ctrls.dram.bytesPerActivate::768-895           30      1.41%     78.29% # Bytes accessed per row activation (Byte)
system.mem_ctrls.dram.bytesPerActivate::896-1023           45      2.11%     80.40% # Bytes accessed per row activation (Byte)
system.mem_ctrls.dram.bytesPerActivate::1024-1151          418     19.60%    100.00% # Bytes accessed per row activation (Byte)
system.mem_ctrls.dram.bytesPerActivate::total         2133                       # Bytes accessed per row activation (Byte)
system.mem_ctrls.dram.dramBytesRead            808512                       # Total bytes read (Byte)
system.mem_ctrls.dram.dramBytesWritten              0                       # Total bytes written (Byte)
system.mem_ctrls.dram.avgRdBW              130.204216                       # Average DRAM read bandwidth in MiBytes/s ((Byte/Second))
system.mem_ctrls.dram.avgWrBW                       0                       # Average DRAM write bandwidth in MiBytes/s ((Byte/Second))
system.mem_ctrls.dram.peakBW                 12800.00                       # Theoretical peak bandwidth in MiByte/s ((Byte/Second))
system.mem_ctrls.dram.busUtil                    1.02                       # Data bus utilization in percentage (Ratio)
system.mem_ctrls.dram.busUtilRead                1.02                       # Data bus utilization in percentage for reads (Ratio)
system.mem_ctrls.dram.busUtilWrite               0.00                       # Data bus utilization in percentage for writes (Ratio)
system.mem_ctrls.dram.pageHitRate               83.05                       # Row buffer hit rate, read and write combined (Ratio)
system.mem_ctrls.dram.power_state.pwrStateResidencyTicks::UNDEFINED   6209568500                       # Cumulative time (in ticks) in various power states (Tick)
system.mem_ctrls.dram.rank0.actEnergy         7711200                       # Energy for activate commands per rank (pJ) (Joule)
system.mem_ctrls.dram.rank0.preEnergy         4079625                       # Energy for precharge commands per rank (pJ) (Joule)
system.mem_ctrls.dram.rank0.readEnergy       46517100                       # Energy for read commands per rank (pJ) (Joule)
system.mem_ctrls.dram.rank0.writeEnergy             0                       # Energy for write commands per rank (pJ) (Joule)
system.mem_ctrls.dram.rank0.refreshEnergy 489868080.000000                       # Energy for refresh commands per rank (pJ) (Joule)
system.mem_ctrls.dram.rank0.actBackEnergy    758056110                       # Energy for active background per rank (pJ) (Joule)
system.mem_ctrls.dram.rank0.preBackEnergy   1746111360                       # Energy for precharge background per rank (pJ) (Joule)
system.mem_ctrls.dram.rank0.actPowerDownEnergy            0                       # Energy for active power-down per rank (pJ) (Joule)
system.mem_ctrls.dram.rank0.prePowerDownEnergy            0                       # Energy for precharge power-down per rank (pJ) (Joule)
system.mem_ctrls.dram.rank0.selfRefreshEnergy            0                       # Energy for self refresh per rank (pJ) (Joule)
system.mem_ctrls.dram.rank0.totalEnergy    3052343475                       # Total energy per rank (pJ) (Joule)
system.mem_ctrls.dram.rank0.averagePower   491.554844                       # Core power per rank (mW) (Watt)
system.mem_ctrls.dram.rank0.totalIdleTime            0                       # Total Idle time Per DRAM Rank (Tick)
system.mem_ctrls.dram.rank0.pwrStateTime::IDLE   4531107750                       # Time in different power states (Tick)
system.mem_ctrls.dram.rank0.pwrStateTime::REF    207220000                       # Time in different power states (Tick)
system.mem_ctrls.dram.rank0.pwrStateTime::SREF            0                       # Time in different power states (Tick)
system.mem_ctrls.dram.rank0.pwrStateTime::PRE_PDN            0                       # Time in different power states (Tick)
system.mem_ctrls.dram.rank0.pwrStateTime::ACT   1471240750                       # Time in different power states (Tick)
system.mem_ctrls.dram.rank0.pwrStateTime::ACT_PDN            0                       # Time in different power states (Tick)
system.mem_ctrls.dram.rank1.actEnergy         7575540                       # Energy for activate commands per rank (pJ) (Joule)
system.mem_ctrls.dram.rank1.preEnergy         4015110                       # Energy for precharge commands per rank (pJ) (Joule)
system.mem_ctrls.dram.rank1.readEnergy       43682520                       # Energy for read commands per rank (pJ) (Joule)
system.mem_ctrls.dram.rank1.writeEnergy             0                       # Energy for write commands per rank (pJ) (Joule)
system.mem_ctrls.dram.rank1.refreshEnergy 489868080.000000                       # Energy for refresh commands per rank (pJ) (Joule)
system.mem_ctrls.dram.rank1.actBackEnergy    712819770                       # Energy for active background per rank (pJ) (Joule)
system.mem_ctrls.dram.rank1.preBackEnergy   1784205120                       # Energy for precharge background per rank (pJ) (Joule)
system.mem_ctrls.dram.rank1.actPowerDownEnergy            0                       # Energy for active power-down per rank (pJ) (Joule)
system.mem_ctrls.dram.rank1.prePowerDownEnergy            0                       # Energy for precharge power-down per rank (pJ) (Joule)
system.mem_ctrls.dram.rank1.selfRefreshEnergy            0                       # Energy for self refresh per rank (pJ) (Joule)
system.mem_ctrls.dram.rank1.totalEnergy    3042166140                       # Total energy per rank (pJ) (Joule)
system.mem_ctrls.dram.rank1.averagePower   489.915868                       # Core power per rank (mW) (Watt)
system.mem_ctrls.dram.rank1.totalIdleTime            0                       # Total Idle time Per DRAM Rank (Tick)
system.mem_ctrls.dram.rank1.pwrStateTime::IDLE   4631031750                       # Time in different power states (Tick)
system.mem_ctrls.dram.rank1.pwrStateTime::REF    207220000                       # Time in different power states (Tick)
system.mem_ctrls.dram.rank1.pwrStateTime::SREF            0                       # Time in different power states (Tick)
system.mem_ctrls.dram.rank1.pwrStateTime::PRE_PDN            0                       # Time in different power states (Tick)
system.mem_ctrls.dram.rank1.pwrStateTime::ACT   1371316750                       # Time in different power states (Tick)
system.mem_ctrls.dram.rank1.pwrStateTime::ACT_PDN            0                       # Time in different power states (Tick)
system.mem_ctrls.power_state.pwrStateResidencyTicks::UNDEFINED   6209568500                       # Cumulative time (in ticks) in various power states (Tick)
system.membus.transDist::ReadResp                5608                       # Transaction distribution (Count)
system.membus.transDist::ReadExReq               7025                       # Transaction distribution (Count)
system.membus.transDist::ReadExResp              7025                       # Transaction distribution (Count)
system.membus.transDist::ReadSharedReq           5608                       # Transaction distribution (Count)
system.membus.pktCount_system.l2.mem_side_port::system.mem_ctrls.port        25266                       # Packet count per connected requestor and responder (Count)
system.membus.pktCount_system.l2.mem_side_port::total        25266                       # Packet count per connected requestor and responder (Count)
system.membus.pktCount::total                   25266                       # Packet count per connected requestor and responder (Count)
system.membus.pktSize_system.l2.mem_side_port::system.mem_ctrls.port       808512                       # Cumulative packet size per connected requestor and responder (Byte)
system.membus.pktSize_system.l2.mem_side_port::total       808512                       # Cumulative packet size per connected requestor and responder (Byte)
system.membus.pktSize::total                   808512                       # Cumulative packet size per connected requestor and responder (Byte)
system.membus.snoops                                0                       # Total snoops (Count)
system.membus.snoopTraffic                          0                       # Total snoop traffic (Byte)
system.membus.snoopFanout::samples              12633                       # Request fanout histogram (Count)
system.membus.snoopFanout::mean                     0                       # Request fanout histogram (Count)
system.membus.snoopFanout::stdev                    0                       # Request fanout histogram (Count)
system.membus.snoopFanout::underflows               0      0.00%      0.00% # Request fanout histogram (Count)
system.membus.snoopFanout::0                    12633    100.00%    100.00% # Request fanout histogram (Count)
system.membus.snoopFanout::1                        0      0.00%    100.00% # Request fanout histogram (Count)
system.membus.snoopFanout::overflows                0      0.00%    100.00% # Request fanout histogram (Count)
system.membus.snoopFanout::min_value                0                       # Request fanout histogram (Count)
system.membus.snoopFanout::max_value                0                       # Request fanout histogram (Count)
system.membus.snoopFanout::total                12633                       # Request fanout histogram (Count)
system.membus.power_state.pwrStateResidencyTicks::UNDEFINED   6209568500                       # Cumulative time (in ticks) in various power states (Tick)
system.membus.reqLayer2.occupancy            15541500                       # Layer occupancy (ticks) (Tick)
system.membus.reqLayer2.utilization               0.0                       # Layer utilization (Ratio)
system.membus.respLayer1.occupancy           66881500                       # Layer occupancy (ticks) (Tick)
system.membus.respLayer1.utilization              0.0                       # Layer utilization (Ratio)
system.membus.snoop_filter.totRequests          12633                       # Total number of requests made to the snoop filter. (Count)
system.membus.snoop_filter.hitSingleRequests            0                       # Number of requests hitting in the snoop filter with a single holder of the requested data. (Count)
system.membus.snoop_filter.hitMultiRequests            0                       # Number of requests hitting in the snoop filter with multiple (>1) holders of the requested data. (Count)
system.membus.snoop_filter.totSnoops                0                       # Total number of snoops made to the snoop filter. (Count)
system.membus.snoop_filter.hitSingleSnoops            0                       # Number of snoops hitting in the snoop filter with a single holder of the requested data. (Count)
system.membus.snoop_filter.hitMultiSnoops            0                       # Number of snoops hitting in the snoop filter with multiple (>1) holders of the requested data. (Count)
system.tol2bus.transDist::ReadResp              14030                       # Transaction distribution (Count)
system.tol2bus.transDist::WritebackDirty        16678                       # Transaction distribution (Count)
system.tol2bus.transDist::WritebackClean          798                       # Transaction distribution (Count)
system.tol2bus.transDist::CleanEvict             3411                       # Transaction distribution (Count)
system.tol2bus.transDist::UpgradeReq                6                       # Transaction distribution (Count)
system.tol2bus.transDist::UpgradeResp               6                       # Transaction distribution (Count)
system.tol2bus.transDist::ReadExReq             10528                       # Transaction distribution (Count)
system.tol2bus.transDist::ReadExResp            10528                       # Transaction distribution (Count)
system.tol2bus.transDist::ReadCleanReq           2422                       # Transaction distribution (Count)
system.tol2bus.transDist::ReadSharedReq         11609                       # Transaction distribution (Count)
system.tol2bus.pktCount_system.cpu.icache.mem_side_port::system.l2.cpu_side_port         5634                       # Packet count per connected requestor and responder (Count)
system.tol2bus.pktCount_system.cpu.dcache.mem_side_port::system.l2.cpu_side_port        64375                       # Packet count per connected requestor and responder (Count)
system.tol2bus.pktCount::total                  70009                       # Packet count per connected requestor and responder (Count)
system.tol2bus.pktSize_system.cpu.icache.mem_side_port::system.l2.cpu_side_port       205568                       # Cumulative packet size per connected requestor and responder (Byte)
system.tol2bus.pktSize_system.cpu.dcache.mem_side_port::system.l2.cpu_side_port      2484160                       # Cumulative packet size per connected requestor and responder (Byte)
system.tol2bus.pktSize::total                 2689728                       # Cumulative packet size per connected requestor and responder (Byte)
system.tol2bus.snoops                               7                       # Total snoops (Count)
system.tol2bus.snoopTraffic                       448                       # Total snoop traffic (Byte)
system.tol2bus.snoopFanout::samples             24565                       # Request fanout histogram (Count)
system.tol2bus.snoopFanout::mean             0.001221                       # Request fanout histogram (Count)
system.tol2bus.snoopFanout::stdev            0.034926                       # Request fanout histogram (Count)
system.tol2bus.snoopFanout::underflows              0      0.00%      0.00% # Request fanout histogram (Count)
system.tol2bus.snoopFanout::0                   24535     99.88%     99.88% # Request fanout histogram (Count)
system.tol2bus.snoopFanout::1                      30      0.12%    100.00% # Request fanout histogram (Count)
system.tol2bus.snoopFanout::2                       0      0.00%    100.00% # Request fanout histogram (Count)
system.tol2bus.snoopFanout::3                       0      0.00%    100.00% # Request fanout histogram (Count)
system.tol2bus.snoopFanout::4                       0      0.00%    100.00% # Request fanout histogram (Count)
system.tol2bus.snoopFanout::overflows               0      0.00%    100.00% # Request fanout histogram (Count)
system.tol2bus.snoopFanout::min_value               0                       # Request fanout histogram (Count)
system.tol2bus.snoopFanout::max_value               1                       # Request fanout histogram (Count)
system.tol2bus.snoopFanout::total               24565                       # Request fanout histogram (Count)
system.tol2bus.power_state.pwrStateResidencyTicks::UNDEFINED   6209568500                       # Cumulative time (in ticks) in various power states (Tick)
system.tol2bus.reqLayer0.occupancy           40202000                       # Layer occupancy (ticks) (Tick)
system.tol2bus.reqLayer0.utilization              0.0                       # Layer utilization (Ratio)
system.tol2bus.respLayer0.occupancy           3631500                       # Layer occupancy (ticks) (Tick)
system.tol2bus.respLayer0.utilization             0.0                       # Layer utilization (Ratio)
system.tol2bus.respLayer1.occupancy          33208999                       # Layer occupancy (ticks) (Tick)
system.tol2bus.respLayer1.utilization             0.0                       # Layer utilization (Ratio)
system.tol2bus.snoop_filter.totRequests         45452                       # Total number of requests made to the snoop filter. (Count)
system.tol2bus.snoop_filter.hitSingleRequests        20891                       # Number of requests hitting in the snoop filter with a single holder of the requested data. (Count)
system.tol2bus.snoop_filter.hitMultiRequests           26                       # Number of requests hitting in the snoop filter with multiple (>1) holders of the requested data. (Count)
system.tol2bus.snoop_filter.totSnoops               0                       # Total number of snoops made to the snoop filter. (Count)
system.tol2bus.snoop_filter.hitSingleSnoops            0                       # Number of snoops hitting in the snoop filter with a single holder of the requested data. (Count)
system.tol2bus.snoop_filter.hitMultiSnoops            0                       # Number of snoops hitting in the snoop filter with multiple (>1) holders of the requested data. (Count)
system.voltage_domain.voltage                       1                       # Voltage in Volts (Volt)
system.workload.inst.arm                            0                       # number of arm instructions executed (Count)
system.workload.inst.quiesce                        0                       # number of quiesce instructions executed (Count)

---------- End Simulation Statistics   ----------
