=== [11] NAME=LROB32_IQ21_LSQ11__BP_L512_G1024_BTB512_RAS32  WINDOW=32,21,11  BRANCH=512,1024,512,32 ===
CMD: python /homes/lp721/aca-gem5/simulate.py --window-size 32,21,11 --branch-pred-size 512,1024,512,32 --name LROB32_IQ21_LSQ11__BP_L512_G1024_BTB512_RAS32
warn: The se.py script is deprecated. It will be removed in future releases of  gem5.
Global frequency set at 1000000000000 ticks per second
warn: No dot file generated. Please install pydot to generate the dot file and pdf.
src/mem/dram_interface.cc:690: warn: DRAM device capacity (8192 Mbytes) does not match the address range assigned (512 Mbytes)
src/base/statistics.hh:279: warn: One of the stats is a legacy stat. Legacy stat is a stat that does not belong to any statistics::Group. Legacy stat is deprecated.
src/base/remote_gdb.cc:418: warn: Sockets disabled, not accepting gdb connections
gem5 Simulator System.  https://www.gem5.org
gem5 is copyrighted software; use the --copyright option for details.

gem5 version 24.0.0.1
gem5 compiled Oct 26 2025 13:38:09
gem5 started Oct 30 2025 18:55:45
gem5 executing on maple10.doc.ic.ac.uk, pid 2369922
command line: /homes/lp721/aca-gem5/gem5/build/X86/gem5.fast --outdir=LROB32_IQ21_LSQ11__BP_L512_G1024_BTB512_RAS32/gem5.out /homes/lp721/aca-gem5/gem5/configs/deprecated/example/se.py --cpu-type=DerivO3CPU --caches --l2cache -c /homes/lp721/aca-gem5/benchmarks/gapbs/tc '--options=-u 10 -n 1 -k 16' -P 'system.cpu[:].numROBEntries=32' -P 'system.cpu[:].numIQEntries=21' -P 'system.cpu[:].LQEntries=11' -P 'system.cpu[:].SQEntries=11' -P 'system.cpu[:].numPhysIntRegs=49' -P 'system.cpu[:].numPhysFloatRegs=49' -P 'system.cpu[:].numPhysVecRegs=49' -P 'system.cpu[:].branchPred.localPredictorSize=512' -P 'system.cpu[:].branchPred.globalPredictorSize=1024' -P 'system.cpu[:].branchPred.btb.numEntries=512' -P 'system.cpu[:].branchPred.ras.numEntries=32' -P 'system.cpu[:].branchPred.localHistoryTableSize=512' --l1d_size=128KiB --l1i_size=128KiB --l2_size=8MB

info: Standard input is not a terminal, disabling listeners.
**** REAL SIMULATION ****
src/sim/simulate.cc:199: info: Entering event queue @ 0.  Starting simulation...
src/sim/syscall_emul.cc:74: warn: ignoring syscall set_robust_list(...)
src/sim/syscall_emul.cc:74: warn: ignoring syscall rseq(...)
src/sim/mem_state.cc:448: info: Increasing stack size by one page.
src/sim/syscall_emul.cc:74: warn: ignoring syscall mprotect(...)
Generate Time:       0.00303
Build Time:          0.00186
Graph has 1024 nodes and 16111 undirected edges for degree: 15
Trial Time:          0.00307
Average Time:        0.00307
Exiting @ tick 10391997500 because exiting with last active thread context

    Simulated seconds = 0.010392
    CPI = 2.427879
    Area = 11.3534 mm^2
    Peak Dynamic = 23.728 W
    Subthreshold Leakage = 19.282 W
    Gate Leakage = 0.0129054 W
    Runtime Dynamic = 3.95777 W

Results have been written to: LROB32_IQ21_LSQ11__BP_L512_G1024_BTB512_RAS32/results
