=== [9] NAME=LROB32_IQ21_LSQ11__BP_L128_G256_BTB128_RAS16  WINDOW=32,21,11  BRANCH=128,256,128,16 ===
CMD: python /homes/lp721/aca-gem5/simulate.py --window-size 32,21,11 --branch-pred-size 128,256,128,16 --name LROB32_IQ21_LSQ11__BP_L128_G256_BTB128_RAS16
warn: The se.py script is deprecated. It will be removed in future releases of  gem5.
Global frequency set at 1000000000000 ticks per second
warn: No dot file generated. Please install pydot to generate the dot file and pdf.
src/mem/dram_interface.cc:690: warn: DRAM device capacity (8192 Mbytes) does not match the address range assigned (512 Mbytes)
src/base/statistics.hh:279: warn: One of the stats is a legacy stat. Legacy stat is a stat that does not belong to any statistics::Group. Legacy stat is deprecated.
src/base/remote_gdb.cc:418: warn: Sockets disabled, not accepting gdb connections
gem5 Simulator System.  https://www.gem5.org
gem5 is copyrighted software; use the --copyright option for details.

gem5 version 24.0.0.1
gem5 compiled Oct 26 2025 13:38:09
gem5 started Oct 30 2025 18:55:42
gem5 executing on maple10.doc.ic.ac.uk, pid 2369830
command line: /homes/lp721/aca-gem5/gem5/build/X86/gem5.fast --outdir=LROB32_IQ21_LSQ11__BP_L128_G256_BTB128_RAS16/gem5.out /homes/lp721/aca-gem5/gem5/configs/deprecated/example/se.py --cpu-type=DerivO3CPU --caches --l2cache -c /homes/lp721/aca-gem5/benchmarks/gapbs/tc '--options=-u 10 -n 1 -k 16' -P 'system.cpu[:].numROBEntries=32' -P 'system.cpu[:].numIQEntries=21' -P 'system.cpu[:].LQEntries=11' -P 'system.cpu[:].SQEntries=11' -P 'system.cpu[:].numPhysIntRegs=49' -P 'system.cpu[:].numPhysFloatRegs=49' -P 'system.cpu[:].numPhysVecRegs=49' -P 'system.cpu[:].branchPred.localPredictorSize=128' -P 'system.cpu[:].branchPred.globalPredictorSize=256' -P 'system.cpu[:].branchPred.btb.numEntries=128' -P 'system.cpu[:].branchPred.ras.numEntries=16' -P 'system.cpu[:].branchPred.localHistoryTableSize=128' --l1d_size=128KiB --l1i_size=128KiB --l2_size=8MB

info: Standard input is not a terminal, disabling listeners.
**** REAL SIMULATION ****
src/sim/simulate.cc:199: info: Entering event queue @ 0.  Starting simulation...
src/sim/syscall_emul.cc:74: warn: ignoring syscall set_robust_list(...)
src/sim/syscall_emul.cc:74: warn: ignoring syscall rseq(...)
src/sim/mem_state.cc:448: info: Increasing stack size by one page.
src/sim/syscall_emul.cc:74: warn: ignoring syscall mprotect(...)
Generate Time:       0.00303
Build Time:          0.00186
Graph has 1024 nodes and 16111 undirected edges for degree: 15
Trial Time:          0.00309
Average Time:        0.00309
Exiting @ tick 10439027000 because exiting with last active thread context

    Simulated seconds = 0.010439
    CPI = 2.438853
    Area = 11.3421 mm^2
    Peak Dynamic = 23.7226 W
    Subthreshold Leakage = 19.2604 W
    Gate Leakage = 0.0128974 W
    Runtime Dynamic = 3.95468 W

Results have been written to: LROB32_IQ21_LSQ11__BP_L128_G256_BTB128_RAS16/results
