
---------- Begin Simulation Statistics ----------
simSeconds                                   0.005807                       # Number of seconds simulated (Second)
simTicks                                   5807476500                       # Number of ticks simulated (Tick)
finalTick                                  5807476500                       # Number of ticks from beginning of simulation (restored from checkpoints and never reset) (Tick)
simFreq                                  1000000000000                       # The number of ticks per simulated second ((Tick/Second))
hostSeconds                                     33.03                       # Real time elapsed on the host (Second)
hostTickRate                                175816977                       # The number of ticks simulated per host second (ticks/s) ((Tick/Second))
hostMemory                                     763840                       # Number of bytes of host memory used (Byte)
simInsts                                      8560481                       # Number of instructions simulated (Count)
simOps                                       15647496                       # Number of ops (including micro ops) simulated (Count)
hostInstRate                                   259162                       # Simulator instruction rate (inst/s) ((Count/Second))
hostOpRate                                     473715                       # Simulator op (including micro ops) rate (op/s) ((Count/Second))
system.clk_domain.clock                          1000                       # Clock period in ticks (Tick)
system.cpu.numCycles                         11614954                       # Number of cpu cycles simulated (Cycle)
system.cpu.cpi                               1.356811                       # CPI: cycles per instruction (core level) ((Cycle/Count))
system.cpu.ipc                               0.737022                       # IPC: instructions per cycle (core level) ((Count/Cycle))
system.cpu.numWorkItemsStarted                      0                       # Number of work items this cpu started (Count)
system.cpu.numWorkItemsCompleted                    0                       # Number of work items this cpu completed (Count)
system.cpu.instsAdded                        26135445                       # Number of instructions added to the IQ (excludes non-spec) (Count)
system.cpu.nonSpecInstsAdded                   199486                       # Number of non-speculative instructions added to the IQ (Count)
system.cpu.instsIssued                       23103379                       # Number of instructions issued (Count)
system.cpu.squashedInstsIssued                   8037                       # Number of squashed instructions issued (Count)
system.cpu.squashedInstsExamined             10687429                       # Number of squashed instructions iterated over during squash; mainly for profiling (Count)
system.cpu.squashedOperandsExamined          19161642                       # Number of squashed operands that are examined and possibly removed from graph (Count)
system.cpu.squashedNonSpecRemoved                2587                       # Number of squashed non-spec instructions that were removed (Count)
system.cpu.numIssuedDist::samples            11473020                       # Number of insts issued each cycle (Count)
system.cpu.numIssuedDist::mean               2.013714                       # Number of insts issued each cycle (Count)
system.cpu.numIssuedDist::stdev              2.663295                       # Number of insts issued each cycle (Count)
system.cpu.numIssuedDist::underflows                0      0.00%      0.00% # Number of insts issued each cycle (Count)
system.cpu.numIssuedDist::0                   5203545     45.35%     45.35% # Number of insts issued each cycle (Count)
system.cpu.numIssuedDist::1                   1538694     13.41%     58.77% # Number of insts issued each cycle (Count)
system.cpu.numIssuedDist::2                   1317726     11.49%     70.25% # Number of insts issued each cycle (Count)
system.cpu.numIssuedDist::3                    640850      5.59%     75.84% # Number of insts issued each cycle (Count)
system.cpu.numIssuedDist::4                    540386      4.71%     80.55% # Number of insts issued each cycle (Count)
system.cpu.numIssuedDist::5                    839821      7.32%     87.87% # Number of insts issued each cycle (Count)
system.cpu.numIssuedDist::6                    425387      3.71%     91.57% # Number of insts issued each cycle (Count)
system.cpu.numIssuedDist::7                    388180      3.38%     94.96% # Number of insts issued each cycle (Count)
system.cpu.numIssuedDist::8                    207644      1.81%     96.77% # Number of insts issued each cycle (Count)
system.cpu.numIssuedDist::9                    185636      1.62%     98.39% # Number of insts issued each cycle (Count)
system.cpu.numIssuedDist::10                    96578      0.84%     99.23% # Number of insts issued each cycle (Count)
system.cpu.numIssuedDist::11                    42082      0.37%     99.59% # Number of insts issued each cycle (Count)
system.cpu.numIssuedDist::12                    21824      0.19%     99.78% # Number of insts issued each cycle (Count)
system.cpu.numIssuedDist::13                     9229      0.08%     99.87% # Number of insts issued each cycle (Count)
system.cpu.numIssuedDist::14                     5945      0.05%     99.92% # Number of insts issued each cycle (Count)
system.cpu.numIssuedDist::15                     4341      0.04%     99.96% # Number of insts issued each cycle (Count)
system.cpu.numIssuedDist::16                     3195      0.03%     99.98% # Number of insts issued each cycle (Count)
system.cpu.numIssuedDist::17                     1189      0.01%     99.99% # Number of insts issued each cycle (Count)
system.cpu.numIssuedDist::18                      241      0.00%    100.00% # Number of insts issued each cycle (Count)
system.cpu.numIssuedDist::19                      527      0.00%    100.00% # Number of insts issued each cycle (Count)
system.cpu.numIssuedDist::overflows                 0      0.00%    100.00% # Number of insts issued each cycle (Count)
system.cpu.numIssuedDist::min_value                 0                       # Number of insts issued each cycle (Count)
system.cpu.numIssuedDist::max_value                19                       # Number of insts issued each cycle (Count)
system.cpu.numIssuedDist::total              11473020                       # Number of insts issued each cycle (Count)
system.cpu.statFuBusy::No_OpClass                   0      0.00%      0.00% # attempts to use FU when none available (Count)
system.cpu.statFuBusy::IntAlu                    1007      1.67%      1.67% # attempts to use FU when none available (Count)
system.cpu.statFuBusy::IntMult                      0      0.00%      1.67% # attempts to use FU when none available (Count)
system.cpu.statFuBusy::IntDiv                   59206     97.91%     99.58% # attempts to use FU when none available (Count)
system.cpu.statFuBusy::FloatAdd                     0      0.00%     99.58% # attempts to use FU when none available (Count)
system.cpu.statFuBusy::FloatCmp                     0      0.00%     99.58% # attempts to use FU when none available (Count)
system.cpu.statFuBusy::FloatCvt                     0      0.00%     99.58% # attempts to use FU when none available (Count)
system.cpu.statFuBusy::FloatMult                    0      0.00%     99.58% # attempts to use FU when none available (Count)
system.cpu.statFuBusy::FloatMultAcc                 0      0.00%     99.58% # attempts to use FU when none available (Count)
system.cpu.statFuBusy::FloatDiv                     0      0.00%     99.58% # attempts to use FU when none available (Count)
system.cpu.statFuBusy::FloatMisc                    0      0.00%     99.58% # attempts to use FU when none available (Count)
system.cpu.statFuBusy::FloatSqrt                    0      0.00%     99.58% # attempts to use FU when none available (Count)
system.cpu.statFuBusy::SimdAdd                      0      0.00%     99.58% # attempts to use FU when none available (Count)
system.cpu.statFuBusy::SimdAddAcc                   0      0.00%     99.58% # attempts to use FU when none available (Count)
system.cpu.statFuBusy::SimdAlu                      0      0.00%     99.58% # attempts to use FU when none available (Count)
system.cpu.statFuBusy::SimdCmp                      0      0.00%     99.58% # attempts to use FU when none available (Count)
system.cpu.statFuBusy::SimdCvt                      0      0.00%     99.58% # attempts to use FU when none available (Count)
system.cpu.statFuBusy::SimdMisc                     0      0.00%     99.58% # attempts to use FU when none available (Count)
system.cpu.statFuBusy::SimdMult                     0      0.00%     99.58% # attempts to use FU when none available (Count)
system.cpu.statFuBusy::SimdMultAcc                  0      0.00%     99.58% # attempts to use FU when none available (Count)
system.cpu.statFuBusy::SimdMatMultAcc               0      0.00%     99.58% # attempts to use FU when none available (Count)
system.cpu.statFuBusy::SimdShift                    0      0.00%     99.58% # attempts to use FU when none available (Count)
system.cpu.statFuBusy::SimdShiftAcc                 0      0.00%     99.58% # attempts to use FU when none available (Count)
system.cpu.statFuBusy::SimdDiv                      0      0.00%     99.58% # attempts to use FU when none available (Count)
system.cpu.statFuBusy::SimdSqrt                     0      0.00%     99.58% # attempts to use FU when none available (Count)
system.cpu.statFuBusy::SimdFloatAdd                 0      0.00%     99.58% # attempts to use FU when none available (Count)
system.cpu.statFuBusy::SimdFloatAlu                 0      0.00%     99.58% # attempts to use FU when none available (Count)
system.cpu.statFuBusy::SimdFloatCmp                 0      0.00%     99.58% # attempts to use FU when none available (Count)
system.cpu.statFuBusy::SimdFloatCvt                 0      0.00%     99.58% # attempts to use FU when none available (Count)
system.cpu.statFuBusy::SimdFloatDiv                 0      0.00%     99.58% # attempts to use FU when none available (Count)
system.cpu.statFuBusy::SimdFloatMisc                0      0.00%     99.58% # attempts to use FU when none available (Count)
system.cpu.statFuBusy::SimdFloatMult                0      0.00%     99.58% # attempts to use FU when none available (Count)
system.cpu.statFuBusy::SimdFloatMultAcc             0      0.00%     99.58% # attempts to use FU when none available (Count)
system.cpu.statFuBusy::SimdFloatMatMultAcc            0      0.00%     99.58% # attempts to use FU when none available (Count)
system.cpu.statFuBusy::SimdFloatSqrt                0      0.00%     99.58% # attempts to use FU when none available (Count)
system.cpu.statFuBusy::SimdReduceAdd                0      0.00%     99.58% # attempts to use FU when none available (Count)
system.cpu.statFuBusy::SimdReduceAlu                0      0.00%     99.58% # attempts to use FU when none available (Count)
system.cpu.statFuBusy::SimdReduceCmp                0      0.00%     99.58% # attempts to use FU when none available (Count)
system.cpu.statFuBusy::SimdFloatReduceAdd            0      0.00%     99.58% # attempts to use FU when none available (Count)
system.cpu.statFuBusy::SimdFloatReduceCmp            0      0.00%     99.58% # attempts to use FU when none available (Count)
system.cpu.statFuBusy::SimdAes                      0      0.00%     99.58% # attempts to use FU when none available (Count)
system.cpu.statFuBusy::SimdAesMix                   0      0.00%     99.58% # attempts to use FU when none available (Count)
system.cpu.statFuBusy::SimdSha1Hash                 0      0.00%     99.58% # attempts to use FU when none available (Count)
system.cpu.statFuBusy::SimdSha1Hash2                0      0.00%     99.58% # attempts to use FU when none available (Count)
system.cpu.statFuBusy::SimdSha256Hash               0      0.00%     99.58% # attempts to use FU when none available (Count)
system.cpu.statFuBusy::SimdSha256Hash2              0      0.00%     99.58% # attempts to use FU when none available (Count)
system.cpu.statFuBusy::SimdShaSigma2                0      0.00%     99.58% # attempts to use FU when none available (Count)
system.cpu.statFuBusy::SimdShaSigma3                0      0.00%     99.58% # attempts to use FU when none available (Count)
system.cpu.statFuBusy::SimdPredAlu                  0      0.00%     99.58% # attempts to use FU when none available (Count)
system.cpu.statFuBusy::Matrix                       0      0.00%     99.58% # attempts to use FU when none available (Count)
system.cpu.statFuBusy::MatrixMov                    0      0.00%     99.58% # attempts to use FU when none available (Count)
system.cpu.statFuBusy::MatrixOP                     0      0.00%     99.58% # attempts to use FU when none available (Count)
system.cpu.statFuBusy::MemRead                    131      0.22%     99.79% # attempts to use FU when none available (Count)
system.cpu.statFuBusy::MemWrite                    59      0.10%     99.89% # attempts to use FU when none available (Count)
system.cpu.statFuBusy::FloatMemRead                51      0.08%     99.98% # attempts to use FU when none available (Count)
system.cpu.statFuBusy::FloatMemWrite               15      0.02%    100.00% # attempts to use FU when none available (Count)
system.cpu.statFuBusy::IprAccess                    0      0.00%    100.00% # attempts to use FU when none available (Count)
system.cpu.statFuBusy::InstPrefetch                 0      0.00%    100.00% # attempts to use FU when none available (Count)
system.cpu.statFuBusy::SimdUnitStrideLoad            0      0.00%    100.00% # attempts to use FU when none available (Count)
system.cpu.statFuBusy::SimdUnitStrideStore            0      0.00%    100.00% # attempts to use FU when none available (Count)
system.cpu.statFuBusy::SimdUnitStrideMaskLoad            0      0.00%    100.00% # attempts to use FU when none available (Count)
system.cpu.statFuBusy::SimdUnitStrideMaskStore            0      0.00%    100.00% # attempts to use FU when none available (Count)
system.cpu.statFuBusy::SimdStridedLoad              0      0.00%    100.00% # attempts to use FU when none available (Count)
system.cpu.statFuBusy::SimdStridedStore             0      0.00%    100.00% # attempts to use FU when none available (Count)
system.cpu.statFuBusy::SimdIndexedLoad              0      0.00%    100.00% # attempts to use FU when none available (Count)
system.cpu.statFuBusy::SimdIndexedStore             0      0.00%    100.00% # attempts to use FU when none available (Count)
system.cpu.statFuBusy::SimdWholeRegisterLoad            0      0.00%    100.00% # attempts to use FU when none available (Count)
system.cpu.statFuBusy::SimdWholeRegisterStore            0      0.00%    100.00% # attempts to use FU when none available (Count)
system.cpu.statFuBusy::SimdUnitStrideFaultOnlyFirstLoad            0      0.00%    100.00% # attempts to use FU when none available (Count)
system.cpu.statFuBusy::SimdUnitStrideSegmentedLoad            0      0.00%    100.00% # attempts to use FU when none available (Count)
system.cpu.statFuBusy::SimdUnitStrideSegmentedStore            0      0.00%    100.00% # attempts to use FU when none available (Count)
system.cpu.statFuBusy::SimdExt                      0      0.00%    100.00% # attempts to use FU when none available (Count)
system.cpu.statFuBusy::SimdFloatExt                 0      0.00%    100.00% # attempts to use FU when none available (Count)
system.cpu.statFuBusy::SimdConfig                   0      0.00%    100.00% # attempts to use FU when none available (Count)
system.cpu.statIssuedInstType_0::No_OpClass       113960      0.49%      0.49% # Number of instructions issued per FU type, per thread (Count)
system.cpu.statIssuedInstType_0::IntAlu      18507096     80.11%     80.60% # Number of instructions issued per FU type, per thread (Count)
system.cpu.statIssuedInstType_0::IntMult         1706      0.01%     80.61% # Number of instructions issued per FU type, per thread (Count)
system.cpu.statIssuedInstType_0::IntDiv        637667      2.76%     83.37% # Number of instructions issued per FU type, per thread (Count)
system.cpu.statIssuedInstType_0::FloatAdd         3979      0.02%     83.38% # Number of instructions issued per FU type, per thread (Count)
system.cpu.statIssuedInstType_0::FloatCmp            0      0.00%     83.38% # Number of instructions issued per FU type, per thread (Count)
system.cpu.statIssuedInstType_0::FloatCvt            0      0.00%     83.38% # Number of instructions issued per FU type, per thread (Count)
system.cpu.statIssuedInstType_0::FloatMult            0      0.00%     83.38% # Number of instructions issued per FU type, per thread (Count)
system.cpu.statIssuedInstType_0::FloatMultAcc            0      0.00%     83.38% # Number of instructions issued per FU type, per thread (Count)
system.cpu.statIssuedInstType_0::FloatDiv            0      0.00%     83.38% # Number of instructions issued per FU type, per thread (Count)
system.cpu.statIssuedInstType_0::FloatMisc            0      0.00%     83.38% # Number of instructions issued per FU type, per thread (Count)
system.cpu.statIssuedInstType_0::FloatSqrt            0      0.00%     83.38% # Number of instructions issued per FU type, per thread (Count)
system.cpu.statIssuedInstType_0::SimdAdd        36528      0.16%     83.54% # Number of instructions issued per FU type, per thread (Count)
system.cpu.statIssuedInstType_0::SimdAddAcc            0      0.00%     83.54% # Number of instructions issued per FU type, per thread (Count)
system.cpu.statIssuedInstType_0::SimdAlu       297297      1.29%     84.83% # Number of instructions issued per FU type, per thread (Count)
system.cpu.statIssuedInstType_0::SimdCmp           84      0.00%     84.83% # Number of instructions issued per FU type, per thread (Count)
system.cpu.statIssuedInstType_0::SimdCvt        19717      0.09%     84.91% # Number of instructions issued per FU type, per thread (Count)
system.cpu.statIssuedInstType_0::SimdMisc        50688      0.22%     85.13% # Number of instructions issued per FU type, per thread (Count)
system.cpu.statIssuedInstType_0::SimdMult            0      0.00%     85.13% # Number of instructions issued per FU type, per thread (Count)
system.cpu.statIssuedInstType_0::SimdMultAcc            0      0.00%     85.13% # Number of instructions issued per FU type, per thread (Count)
system.cpu.statIssuedInstType_0::SimdMatMultAcc            0      0.00%     85.13% # Number of instructions issued per FU type, per thread (Count)
system.cpu.statIssuedInstType_0::SimdShift        34239      0.15%     85.28% # Number of instructions issued per FU type, per thread (Count)
system.cpu.statIssuedInstType_0::SimdShiftAcc            0      0.00%     85.28% # Number of instructions issued per FU type, per thread (Count)
system.cpu.statIssuedInstType_0::SimdDiv            0      0.00%     85.28% # Number of instructions issued per FU type, per thread (Count)
system.cpu.statIssuedInstType_0::SimdSqrt            0      0.00%     85.28% # Number of instructions issued per FU type, per thread (Count)
system.cpu.statIssuedInstType_0::SimdFloatAdd            1      0.00%     85.28% # Number of instructions issued per FU type, per thread (Count)
system.cpu.statIssuedInstType_0::SimdFloatAlu            0      0.00%     85.28% # Number of instructions issued per FU type, per thread (Count)
system.cpu.statIssuedInstType_0::SimdFloatCmp            0      0.00%     85.28% # Number of instructions issued per FU type, per thread (Count)
system.cpu.statIssuedInstType_0::SimdFloatCvt           47      0.00%     85.28% # Number of instructions issued per FU type, per thread (Count)
system.cpu.statIssuedInstType_0::SimdFloatDiv           15      0.00%     85.28% # Number of instructions issued per FU type, per thread (Count)
system.cpu.statIssuedInstType_0::SimdFloatMisc            0      0.00%     85.28% # Number of instructions issued per FU type, per thread (Count)
system.cpu.statIssuedInstType_0::SimdFloatMult            0      0.00%     85.28% # Number of instructions issued per FU type, per thread (Count)
system.cpu.statIssuedInstType_0::SimdFloatMultAcc            0      0.00%     85.28% # Number of instructions issued per FU type, per thread (Count)
system.cpu.statIssuedInstType_0::SimdFloatMatMultAcc            0      0.00%     85.28% # Number of instructions issued per FU type, per thread (Count)
system.cpu.statIssuedInstType_0::SimdFloatSqrt            0      0.00%     85.28% # Number of instructions issued per FU type, per thread (Count)
system.cpu.statIssuedInstType_0::SimdReduceAdd            0      0.00%     85.28% # Number of instructions issued per FU type, per thread (Count)
system.cpu.statIssuedInstType_0::SimdReduceAlu            0      0.00%     85.28% # Number of instructions issued per FU type, per thread (Count)
system.cpu.statIssuedInstType_0::SimdReduceCmp            0      0.00%     85.28% # Number of instructions issued per FU type, per thread (Count)
system.cpu.statIssuedInstType_0::SimdFloatReduceAdd            0      0.00%     85.28% # Number of instructions issued per FU type, per thread (Count)
system.cpu.statIssuedInstType_0::SimdFloatReduceCmp            0      0.00%     85.28% # Number of instructions issued per FU type, per thread (Count)
system.cpu.statIssuedInstType_0::SimdAes            0      0.00%     85.28% # Number of instructions issued per FU type, per thread (Count)
system.cpu.statIssuedInstType_0::SimdAesMix            0      0.00%     85.28% # Number of instructions issued per FU type, per thread (Count)
system.cpu.statIssuedInstType_0::SimdSha1Hash            0      0.00%     85.28% # Number of instructions issued per FU type, per thread (Count)
system.cpu.statIssuedInstType_0::SimdSha1Hash2            0      0.00%     85.28% # Number of instructions issued per FU type, per thread (Count)
system.cpu.statIssuedInstType_0::SimdSha256Hash            0      0.00%     85.28% # Number of instructions issued per FU type, per thread (Count)
system.cpu.statIssuedInstType_0::SimdSha256Hash2            0      0.00%     85.28% # Number of instructions issued per FU type, per thread (Count)
system.cpu.statIssuedInstType_0::SimdShaSigma2            0      0.00%     85.28% # Number of instructions issued per FU type, per thread (Count)
system.cpu.statIssuedInstType_0::SimdShaSigma3            0      0.00%     85.28% # Number of instructions issued per FU type, per thread (Count)
system.cpu.statIssuedInstType_0::SimdPredAlu            0      0.00%     85.28% # Number of instructions issued per FU type, per thread (Count)
system.cpu.statIssuedInstType_0::Matrix             0      0.00%     85.28% # Number of instructions issued per FU type, per thread (Count)
system.cpu.statIssuedInstType_0::MatrixMov            0      0.00%     85.28% # Number of instructions issued per FU type, per thread (Count)
system.cpu.statIssuedInstType_0::MatrixOP            0      0.00%     85.28% # Number of instructions issued per FU type, per thread (Count)
system.cpu.statIssuedInstType_0::MemRead      2499731     10.82%     96.10% # Number of instructions issued per FU type, per thread (Count)
system.cpu.statIssuedInstType_0::MemWrite       668861      2.90%     99.00% # Number of instructions issued per FU type, per thread (Count)
system.cpu.statIssuedInstType_0::FloatMemRead       164695      0.71%     99.71% # Number of instructions issued per FU type, per thread (Count)
system.cpu.statIssuedInstType_0::FloatMemWrite        67068      0.29%    100.00% # Number of instructions issued per FU type, per thread (Count)
system.cpu.statIssuedInstType_0::IprAccess            0      0.00%    100.00% # Number of instructions issued per FU type, per thread (Count)
system.cpu.statIssuedInstType_0::InstPrefetch            0      0.00%    100.00% # Number of instructions issued per FU type, per thread (Count)
system.cpu.statIssuedInstType_0::SimdUnitStrideLoad            0      0.00%    100.00% # Number of instructions issued per FU type, per thread (Count)
system.cpu.statIssuedInstType_0::SimdUnitStrideStore            0      0.00%    100.00% # Number of instructions issued per FU type, per thread (Count)
system.cpu.statIssuedInstType_0::SimdUnitStrideMaskLoad            0      0.00%    100.00% # Number of instructions issued per FU type, per thread (Count)
system.cpu.statIssuedInstType_0::SimdUnitStrideMaskStore            0      0.00%    100.00% # Number of instructions issued per FU type, per thread (Count)
system.cpu.statIssuedInstType_0::SimdStridedLoad            0      0.00%    100.00% # Number of instructions issued per FU type, per thread (Count)
system.cpu.statIssuedInstType_0::SimdStridedStore            0      0.00%    100.00% # Number of instructions issued per FU type, per thread (Count)
system.cpu.statIssuedInstType_0::SimdIndexedLoad            0      0.00%    100.00% # Number of instructions issued per FU type, per thread (Count)
system.cpu.statIssuedInstType_0::SimdIndexedStore            0      0.00%    100.00% # Number of instructions issued per FU type, per thread (Count)
system.cpu.statIssuedInstType_0::SimdWholeRegisterLoad            0      0.00%    100.00% # Number of instructions issued per FU type, per thread (Count)
system.cpu.statIssuedInstType_0::SimdWholeRegisterStore            0      0.00%    100.00% # Number of instructions issued per FU type, per thread (Count)
system.cpu.statIssuedInstType_0::SimdUnitStrideFaultOnlyFirstLoad            0      0.00%    100.00% # Number of instructions issued per FU type, per thread (Count)
system.cpu.statIssuedInstType_0::SimdUnitStrideSegmentedLoad            0      0.00%    100.00% # Number of instructions issued per FU type, per thread (Count)
system.cpu.statIssuedInstType_0::SimdUnitStrideSegmentedStore            0      0.00%    100.00% # Number of instructions issued per FU type, per thread (Count)
system.cpu.statIssuedInstType_0::SimdExt            0      0.00%    100.00% # Number of instructions issued per FU type, per thread (Count)
system.cpu.statIssuedInstType_0::SimdFloatExt            0      0.00%    100.00% # Number of instructions issued per FU type, per thread (Count)
system.cpu.statIssuedInstType_0::SimdConfig            0      0.00%    100.00% # Number of instructions issued per FU type, per thread (Count)
system.cpu.statIssuedInstType_0::total       23103379                       # Number of instructions issued per FU type, per thread (Count)
system.cpu.issueRate                         1.989106                       # Inst issue rate ((Count/Cycle))
system.cpu.fuBusy                               60469                       # FU busy when requested (Count)
system.cpu.fuBusyRate                        0.002617                       # FU busy rate (busy events/executed inst) ((Count/Count))
system.cpu.intInstQueueReads                 56072038                       # Number of integer instruction queue reads (Count)
system.cpu.intInstQueueWrites                36125540                       # Number of integer instruction queue writes (Count)
system.cpu.intInstQueueWakeupAccesses        21221944                       # Number of integer instruction queue wakeup accesses (Count)
system.cpu.fpInstQueueReads                   1676246                       # Number of floating instruction queue reads (Count)
system.cpu.fpInstQueueWrites                   897001                       # Number of floating instruction queue writes (Count)
system.cpu.fpInstQueueWakeupAccesses           825883                       # Number of floating instruction queue wakeup accesses (Count)
system.cpu.vecInstQueueReads                        0                       # Number of vector instruction queue reads (Count)
system.cpu.vecInstQueueWrites                       0                       # Number of vector instruction queue writes (Count)
system.cpu.vecInstQueueWakeupAccesses               0                       # Number of vector instruction queue wakeup accesses (Count)
system.cpu.intAluAccesses                    22211908                       # Number of integer alu accesses (Count)
system.cpu.fpAluAccesses                       837980                       # Number of floating point alu accesses (Count)
system.cpu.vecAluAccesses                           0                       # Number of vector alu accesses (Count)
system.cpu.numSquashedInsts                    881830                       # Number of squashed instructions skipped in execute (Count)
system.cpu.numSwp                                   0                       # Number of swp insts executed (Count)
system.cpu.timesIdled                            1310                       # Number of times that the entire CPU went into an idle state and unscheduled itself (Count)
system.cpu.idleCycles                          141934                       # Total number of cycles that the CPU has spent unscheduled due to idling (Cycle)
system.cpu.MemDepUnit__0.insertedLoads        2833195                       # Number of loads inserted to the mem dependence unit. (Count)
system.cpu.MemDepUnit__0.insertedStores        907279                       # Number of stores inserted to the mem dependence unit. (Count)
system.cpu.MemDepUnit__0.conflictingLoads       334462                       # Number of conflicting loads. (Count)
system.cpu.MemDepUnit__0.conflictingStores       101479                       # Number of conflicting stores. (Count)
system.cpu.MemDepUnit__0.falseDependencies          352                       # Number of times load's address didn't match predicted store's address (Count)
system.cpu.MemDepUnit__0.correctPredictions        22649                       # Number of times load's address did match predicted store's address (Count)
system.cpu.MemDepUnit__0.LFSTReads                  0                       # Number of LFST reads. (Count)
system.cpu.MemDepUnit__0.LFSTWrites                 0                       # Number of LFST writes. (Count)
system.cpu.MemDepUnit__0.readsPath1               662                       # Number of reads to path table 1. (Count)
system.cpu.MemDepUnit__0.readsPath2              7474                       # Number of reads to path table 2. (Count)
system.cpu.MemDepUnit__0.readsPath3               986                       # Number of reads to path table 3. (Count)
system.cpu.MemDepUnit__0.readsPath4              9881                       # Number of reads to path table 4. (Count)
system.cpu.MemDepUnit__0.readsPath5               422                       # Number of reads to path table 5. (Count)
system.cpu.MemDepUnit__0.readsPath6                76                       # Number of reads to path table 6. (Count)
system.cpu.MemDepUnit__0.readsPath7              3659                       # Number of reads to path table 7. (Count)
system.cpu.MemDepUnit__0.readsPath8                22                       # Number of reads to path table 8. (Count)
system.cpu.MemDepUnit__0.writesPath1             4800                       # Number of writes to path table 1. (Count)
system.cpu.MemDepUnit__0.writesPath2            22390                       # Number of writes to path table 2. (Count)
system.cpu.MemDepUnit__0.writesPath3             3269                       # Number of writes to path table 3. (Count)
system.cpu.MemDepUnit__0.writesPath4            29295                       # Number of writes to path table 4. (Count)
system.cpu.MemDepUnit__0.writesPath5             1419                       # Number of writes to path table 5. (Count)
system.cpu.MemDepUnit__0.writesPath6              227                       # Number of writes to path table 6. (Count)
system.cpu.MemDepUnit__0.writesPath7             9632                       # Number of writes to path table 7. (Count)
system.cpu.MemDepUnit__0.writesPath8              333                       # Number of writes to path table 8. (Count)
system.cpu.MemDepUnit__1.insertedLoads              0                       # Number of loads inserted to the mem dependence unit. (Count)
system.cpu.MemDepUnit__1.insertedStores             0                       # Number of stores inserted to the mem dependence unit. (Count)
system.cpu.MemDepUnit__1.conflictingLoads            0                       # Number of conflicting loads. (Count)
system.cpu.MemDepUnit__1.conflictingStores            0                       # Number of conflicting stores. (Count)
system.cpu.MemDepUnit__1.falseDependencies            0                       # Number of times load's address didn't match predicted store's address (Count)
system.cpu.MemDepUnit__1.correctPredictions            0                       # Number of times load's address did match predicted store's address (Count)
system.cpu.MemDepUnit__1.LFSTReads                  0                       # Number of LFST reads. (Count)
system.cpu.MemDepUnit__1.LFSTWrites                 0                       # Number of LFST writes. (Count)
system.cpu.MemDepUnit__1.readsPath1                 0                       # Number of reads to path table 1. (Count)
system.cpu.MemDepUnit__1.readsPath2                 0                       # Number of reads to path table 2. (Count)
system.cpu.MemDepUnit__1.readsPath3                 0                       # Number of reads to path table 3. (Count)
system.cpu.MemDepUnit__1.readsPath4                 0                       # Number of reads to path table 4. (Count)
system.cpu.MemDepUnit__1.readsPath5                 0                       # Number of reads to path table 5. (Count)
system.cpu.MemDepUnit__1.readsPath6                 0                       # Number of reads to path table 6. (Count)
system.cpu.MemDepUnit__1.readsPath7                 0                       # Number of reads to path table 7. (Count)
system.cpu.MemDepUnit__1.readsPath8                 0                       # Number of reads to path table 8. (Count)
system.cpu.MemDepUnit__1.writesPath1                0                       # Number of writes to path table 1. (Count)
system.cpu.MemDepUnit__1.writesPath2                0                       # Number of writes to path table 2. (Count)
system.cpu.MemDepUnit__1.writesPath3                0                       # Number of writes to path table 3. (Count)
system.cpu.MemDepUnit__1.writesPath4                0                       # Number of writes to path table 4. (Count)
system.cpu.MemDepUnit__1.writesPath5                0                       # Number of writes to path table 5. (Count)
system.cpu.MemDepUnit__1.writesPath6                0                       # Number of writes to path table 6. (Count)
system.cpu.MemDepUnit__1.writesPath7                0                       # Number of writes to path table 7. (Count)
system.cpu.MemDepUnit__1.writesPath8                0                       # Number of writes to path table 8. (Count)
system.cpu.MemDepUnit__2.insertedLoads              0                       # Number of loads inserted to the mem dependence unit. (Count)
system.cpu.MemDepUnit__2.insertedStores             0                       # Number of stores inserted to the mem dependence unit. (Count)
system.cpu.MemDepUnit__2.conflictingLoads            0                       # Number of conflicting loads. (Count)
system.cpu.MemDepUnit__2.conflictingStores            0                       # Number of conflicting stores. (Count)
system.cpu.MemDepUnit__2.falseDependencies            0                       # Number of times load's address didn't match predicted store's address (Count)
system.cpu.MemDepUnit__2.correctPredictions            0                       # Number of times load's address did match predicted store's address (Count)
system.cpu.MemDepUnit__2.LFSTReads                  0                       # Number of LFST reads. (Count)
system.cpu.MemDepUnit__2.LFSTWrites                 0                       # Number of LFST writes. (Count)
system.cpu.MemDepUnit__2.readsPath1                 0                       # Number of reads to path table 1. (Count)
system.cpu.MemDepUnit__2.readsPath2                 0                       # Number of reads to path table 2. (Count)
system.cpu.MemDepUnit__2.readsPath3                 0                       # Number of reads to path table 3. (Count)
system.cpu.MemDepUnit__2.readsPath4                 0                       # Number of reads to path table 4. (Count)
system.cpu.MemDepUnit__2.readsPath5                 0                       # Number of reads to path table 5. (Count)
system.cpu.MemDepUnit__2.readsPath6                 0                       # Number of reads to path table 6. (Count)
system.cpu.MemDepUnit__2.readsPath7                 0                       # Number of reads to path table 7. (Count)
system.cpu.MemDepUnit__2.readsPath8                 0                       # Number of reads to path table 8. (Count)
system.cpu.MemDepUnit__2.writesPath1                0                       # Number of writes to path table 1. (Count)
system.cpu.MemDepUnit__2.writesPath2                0                       # Number of writes to path table 2. (Count)
system.cpu.MemDepUnit__2.writesPath3                0                       # Number of writes to path table 3. (Count)
system.cpu.MemDepUnit__2.writesPath4                0                       # Number of writes to path table 4. (Count)
system.cpu.MemDepUnit__2.writesPath5                0                       # Number of writes to path table 5. (Count)
system.cpu.MemDepUnit__2.writesPath6                0                       # Number of writes to path table 6. (Count)
system.cpu.MemDepUnit__2.writesPath7                0                       # Number of writes to path table 7. (Count)
system.cpu.MemDepUnit__2.writesPath8                0                       # Number of writes to path table 8. (Count)
system.cpu.MemDepUnit__3.insertedLoads              0                       # Number of loads inserted to the mem dependence unit. (Count)
system.cpu.MemDepUnit__3.insertedStores             0                       # Number of stores inserted to the mem dependence unit. (Count)
system.cpu.MemDepUnit__3.conflictingLoads            0                       # Number of conflicting loads. (Count)
system.cpu.MemDepUnit__3.conflictingStores            0                       # Number of conflicting stores. (Count)
system.cpu.MemDepUnit__3.falseDependencies            0                       # Number of times load's address didn't match predicted store's address (Count)
system.cpu.MemDepUnit__3.correctPredictions            0                       # Number of times load's address did match predicted store's address (Count)
system.cpu.MemDepUnit__3.LFSTReads                  0                       # Number of LFST reads. (Count)
system.cpu.MemDepUnit__3.LFSTWrites                 0                       # Number of LFST writes. (Count)
system.cpu.MemDepUnit__3.readsPath1                 0                       # Number of reads to path table 1. (Count)
system.cpu.MemDepUnit__3.readsPath2                 0                       # Number of reads to path table 2. (Count)
system.cpu.MemDepUnit__3.readsPath3                 0                       # Number of reads to path table 3. (Count)
system.cpu.MemDepUnit__3.readsPath4                 0                       # Number of reads to path table 4. (Count)
system.cpu.MemDepUnit__3.readsPath5                 0                       # Number of reads to path table 5. (Count)
system.cpu.MemDepUnit__3.readsPath6                 0                       # Number of reads to path table 6. (Count)
system.cpu.MemDepUnit__3.readsPath7                 0                       # Number of reads to path table 7. (Count)
system.cpu.MemDepUnit__3.readsPath8                 0                       # Number of reads to path table 8. (Count)
system.cpu.MemDepUnit__3.writesPath1                0                       # Number of writes to path table 1. (Count)
system.cpu.MemDepUnit__3.writesPath2                0                       # Number of writes to path table 2. (Count)
system.cpu.MemDepUnit__3.writesPath3                0                       # Number of writes to path table 3. (Count)
system.cpu.MemDepUnit__3.writesPath4                0                       # Number of writes to path table 4. (Count)
system.cpu.MemDepUnit__3.writesPath5                0                       # Number of writes to path table 5. (Count)
system.cpu.MemDepUnit__3.writesPath6                0                       # Number of writes to path table 6. (Count)
system.cpu.MemDepUnit__3.writesPath7                0                       # Number of writes to path table 7. (Count)
system.cpu.MemDepUnit__3.writesPath8                0                       # Number of writes to path table 8. (Count)
system.cpu.branchPred.lookups_0::NoBranch           14      0.00%      0.00% # Number of BP lookups (Count)
system.cpu.branchPred.lookups_0::Return         35230      0.81%      0.81% # Number of BP lookups (Count)
system.cpu.branchPred.lookups_0::CallDirect        36819      0.85%      1.66% # Number of BP lookups (Count)
system.cpu.branchPred.lookups_0::CallIndirect          431      0.01%      1.67% # Number of BP lookups (Count)
system.cpu.branchPred.lookups_0::DirectCond      3536287     81.27%     82.94% # Number of BP lookups (Count)
system.cpu.branchPred.lookups_0::DirectUncond       714395     16.42%     99.36% # Number of BP lookups (Count)
system.cpu.branchPred.lookups_0::IndirectCond            0      0.00%     99.36% # Number of BP lookups (Count)
system.cpu.branchPred.lookups_0::IndirectUncond        27927      0.64%    100.00% # Number of BP lookups (Count)
system.cpu.branchPred.lookups_0::total        4351103                       # Number of BP lookups (Count)
system.cpu.branchPred.squashes_0::NoBranch           14      0.00%      0.00% # Number of branches that got squashed (completely removed) as an earlier branch was mispredicted. (Count)
system.cpu.branchPred.squashes_0::Return        10656      0.45%      0.45% # Number of branches that got squashed (completely removed) as an earlier branch was mispredicted. (Count)
system.cpu.branchPred.squashes_0::CallDirect        12405      0.53%      0.98% # Number of branches that got squashed (completely removed) as an earlier branch was mispredicted. (Count)
system.cpu.branchPred.squashes_0::CallIndirect          266      0.01%      0.99% # Number of branches that got squashed (completely removed) as an earlier branch was mispredicted. (Count)
system.cpu.branchPred.squashes_0::DirectCond      1877542     79.94%     80.93% # Number of branches that got squashed (completely removed) as an earlier branch was mispredicted. (Count)
system.cpu.branchPred.squashes_0::DirectUncond       436519     18.59%     99.52% # Number of branches that got squashed (completely removed) as an earlier branch was mispredicted. (Count)
system.cpu.branchPred.squashes_0::IndirectCond            0      0.00%     99.52% # Number of branches that got squashed (completely removed) as an earlier branch was mispredicted. (Count)
system.cpu.branchPred.squashes_0::IndirectUncond        11299      0.48%    100.00% # Number of branches that got squashed (completely removed) as an earlier branch was mispredicted. (Count)
system.cpu.branchPred.squashes_0::total       2348701                       # Number of branches that got squashed (completely removed) as an earlier branch was mispredicted. (Count)
system.cpu.branchPred.corrected_0::NoBranch            2      0.00%      0.00% # Number of branches that got corrected but not yet commited. Branches get corrected by decode or after execute. Also a branch misprediction can be detected out-of-order. Therefore, a corrected branch might not end up beeing committed in case an even earlier branch was mispredicted (Count)
system.cpu.branchPred.corrected_0::Return           30      0.00%      0.00% # Number of branches that got corrected but not yet commited. Branches get corrected by decode or after execute. Also a branch misprediction can be detected out-of-order. Therefore, a corrected branch might not end up beeing committed in case an even earlier branch was mispredicted (Count)
system.cpu.branchPred.corrected_0::CallDirect          841      0.13%      0.14% # Number of branches that got corrected but not yet commited. Branches get corrected by decode or after execute. Also a branch misprediction can be detected out-of-order. Therefore, a corrected branch might not end up beeing committed in case an even earlier branch was mispredicted (Count)
system.cpu.branchPred.corrected_0::CallIndirect          125      0.02%      0.16% # Number of branches that got corrected but not yet commited. Branches get corrected by decode or after execute. Also a branch misprediction can be detected out-of-order. Therefore, a corrected branch might not end up beeing committed in case an even earlier branch was mispredicted (Count)
system.cpu.branchPred.corrected_0::DirectCond       439792     68.44%     68.60% # Number of branches that got corrected but not yet commited. Branches get corrected by decode or after execute. Also a branch misprediction can be detected out-of-order. Therefore, a corrected branch might not end up beeing committed in case an even earlier branch was mispredicted (Count)
system.cpu.branchPred.corrected_0::DirectUncond       200952     31.27%     99.87% # Number of branches that got corrected but not yet commited. Branches get corrected by decode or after execute. Also a branch misprediction can be detected out-of-order. Therefore, a corrected branch might not end up beeing committed in case an even earlier branch was mispredicted (Count)
system.cpu.branchPred.corrected_0::IndirectCond            0      0.00%     99.87% # Number of branches that got corrected but not yet commited. Branches get corrected by decode or after execute. Also a branch misprediction can be detected out-of-order. Therefore, a corrected branch might not end up beeing committed in case an even earlier branch was mispredicted (Count)
system.cpu.branchPred.corrected_0::IndirectUncond          814      0.13%    100.00% # Number of branches that got corrected but not yet commited. Branches get corrected by decode or after execute. Also a branch misprediction can be detected out-of-order. Therefore, a corrected branch might not end up beeing committed in case an even earlier branch was mispredicted (Count)
system.cpu.branchPred.corrected_0::total       642556                       # Number of branches that got corrected but not yet commited. Branches get corrected by decode or after execute. Also a branch misprediction can be detected out-of-order. Therefore, a corrected branch might not end up beeing committed in case an even earlier branch was mispredicted (Count)
system.cpu.branchPred.earlyResteers_0::NoBranch            0                       # Number of branches that got redirected after decode. (Count)
system.cpu.branchPred.earlyResteers_0::Return            0                       # Number of branches that got redirected after decode. (Count)
system.cpu.branchPred.earlyResteers_0::CallDirect            0                       # Number of branches that got redirected after decode. (Count)
system.cpu.branchPred.earlyResteers_0::CallIndirect            0                       # Number of branches that got redirected after decode. (Count)
system.cpu.branchPred.earlyResteers_0::DirectCond            0                       # Number of branches that got redirected after decode. (Count)
system.cpu.branchPred.earlyResteers_0::DirectUncond            0                       # Number of branches that got redirected after decode. (Count)
system.cpu.branchPred.earlyResteers_0::IndirectCond            0                       # Number of branches that got redirected after decode. (Count)
system.cpu.branchPred.earlyResteers_0::IndirectUncond            0                       # Number of branches that got redirected after decode. (Count)
system.cpu.branchPred.earlyResteers_0::total            0                       # Number of branches that got redirected after decode. (Count)
system.cpu.branchPred.committed_0::NoBranch            0      0.00%      0.00% # Number of branches finally committed  (Count)
system.cpu.branchPred.committed_0::Return        24574      1.23%      1.23% # Number of branches finally committed  (Count)
system.cpu.branchPred.committed_0::CallDirect        24414      1.22%      2.45% # Number of branches finally committed  (Count)
system.cpu.branchPred.committed_0::CallIndirect          165      0.01%      2.45% # Number of branches finally committed  (Count)
system.cpu.branchPred.committed_0::DirectCond      1658742     82.84%     85.29% # Number of branches finally committed  (Count)
system.cpu.branchPred.committed_0::DirectUncond       277876     13.88%     99.17% # Number of branches finally committed  (Count)
system.cpu.branchPred.committed_0::IndirectCond            0      0.00%     99.17% # Number of branches finally committed  (Count)
system.cpu.branchPred.committed_0::IndirectUncond        16628      0.83%    100.00% # Number of branches finally committed  (Count)
system.cpu.branchPred.committed_0::total      2002399                       # Number of branches finally committed  (Count)
system.cpu.branchPred.mispredicted_0::NoBranch            0      0.00%      0.00% # Number of committed branches that were mispredicted. (Count)
system.cpu.branchPred.mispredicted_0::Return            2      0.00%      0.00% # Number of committed branches that were mispredicted. (Count)
system.cpu.branchPred.mispredicted_0::CallDirect          500      0.12%      0.12% # Number of committed branches that were mispredicted. (Count)
system.cpu.branchPred.mispredicted_0::CallIndirect          117      0.03%      0.15% # Number of committed branches that were mispredicted. (Count)
system.cpu.branchPred.mispredicted_0::DirectCond       341893     82.48%     82.63% # Number of committed branches that were mispredicted. (Count)
system.cpu.branchPred.mispredicted_0::DirectUncond        71240     17.19%     99.82% # Number of committed branches that were mispredicted. (Count)
system.cpu.branchPred.mispredicted_0::IndirectCond            0      0.00%     99.82% # Number of committed branches that were mispredicted. (Count)
system.cpu.branchPred.mispredicted_0::IndirectUncond          740      0.18%    100.00% # Number of committed branches that were mispredicted. (Count)
system.cpu.branchPred.mispredicted_0::total       414492                       # Number of committed branches that were mispredicted. (Count)
system.cpu.branchPred.targetProvider_0::NoTarget      1531612     35.20%     35.20% # The component providing the target for taken branches (Count)
system.cpu.branchPred.targetProvider_0::BTB      2762568     63.49%     98.69% # The component providing the target for taken branches (Count)
system.cpu.branchPred.targetProvider_0::RAS        35229      0.81%     99.50% # The component providing the target for taken branches (Count)
system.cpu.branchPred.targetProvider_0::Indirect        21694      0.50%    100.00% # The component providing the target for taken branches (Count)
system.cpu.branchPred.targetProvider_0::total      4351103                       # The component providing the target for taken branches (Count)
system.cpu.branchPred.targetWrong_0::NoBranch       134545     21.52%     21.52% # Number of branches where the target was incorrect or not available at prediction time. (Count)
system.cpu.branchPred.targetWrong_0::Return       490116     78.38%     99.90% # Number of branches where the target was incorrect or not available at prediction time. (Count)
system.cpu.branchPred.targetWrong_0::CallDirect           30      0.00%     99.91% # Number of branches where the target was incorrect or not available at prediction time. (Count)
system.cpu.branchPred.targetWrong_0::CallIndirect          579      0.09%    100.00% # Number of branches where the target was incorrect or not available at prediction time. (Count)
system.cpu.branchPred.targetWrong_0::DirectCond            0      0.00%    100.00% # Number of branches where the target was incorrect or not available at prediction time. (Count)
system.cpu.branchPred.targetWrong_0::DirectUncond            0      0.00%    100.00% # Number of branches where the target was incorrect or not available at prediction time. (Count)
system.cpu.branchPred.targetWrong_0::IndirectCond            0      0.00%    100.00% # Number of branches where the target was incorrect or not available at prediction time. (Count)
system.cpu.branchPred.targetWrong_0::IndirectUncond            0      0.00%    100.00% # Number of branches where the target was incorrect or not available at prediction time. (Count)
system.cpu.branchPred.targetWrong_0::total       625270                       # Number of branches where the target was incorrect or not available at prediction time. (Count)
system.cpu.branchPred.condPredicted           3536301                       # Number of conditional branches predicted (Count)
system.cpu.branchPred.condPredictedTaken      2016987                       # Number of conditional branches predicted as taken (Count)
system.cpu.branchPred.condIncorrect            642556                       # Number of conditional branches incorrect (Count)
system.cpu.branchPred.predTakenBTBMiss           1654                       # Number of branches predicted taken but missed in BTB (Count)
system.cpu.branchPred.NotTakenMispredicted       495665                       # Number branches predicted 'not taken' but turned out to be taken (Count)
system.cpu.branchPred.TakenMispredicted        146891                       # Number branches predicted taken but are actually not taken (Count)
system.cpu.branchPred.BTBLookups              4351103                       # Number of BTB lookups (Count)
system.cpu.branchPred.BTBUpdates               494694                       # Number of BTB updates (Count)
system.cpu.branchPred.BTBHits                 3815625                       # Number of BTB hits (Count)
system.cpu.branchPred.BTBHitRatio            0.876933                       # BTB Hit Ratio (Ratio)
system.cpu.branchPred.BTBMispredicted            2318                       # Number BTB mispredictions. No target found or target wrong (Count)
system.cpu.branchPred.indirectLookups           28358                       # Number of indirect predictor lookups. (Count)
system.cpu.branchPred.indirectHits              21694                       # Number of indirect target hits. (Count)
system.cpu.branchPred.indirectMisses             6664                       # Number of indirect misses. (Count)
system.cpu.branchPred.indirectMispredicted            0                       # Number of mispredicted indirect branches. (Count)
system.cpu.branchPred.BTB.lookups::NoBranch            0                       # Number of BTB lookups (Count)
system.cpu.branchPred.BTB.lookups::Return            0                       # Number of BTB lookups (Count)
system.cpu.branchPred.BTB.lookups::CallDirect            0                       # Number of BTB lookups (Count)
system.cpu.branchPred.BTB.lookups::CallIndirect            0                       # Number of BTB lookups (Count)
system.cpu.branchPred.BTB.lookups::DirectCond            0                       # Number of BTB lookups (Count)
system.cpu.branchPred.BTB.lookups::DirectUncond            0                       # Number of BTB lookups (Count)
system.cpu.branchPred.BTB.lookups::IndirectCond            0                       # Number of BTB lookups (Count)
system.cpu.branchPred.BTB.lookups::IndirectUncond            0                       # Number of BTB lookups (Count)
system.cpu.branchPred.BTB.lookups::total            0                       # Number of BTB lookups (Count)
system.cpu.branchPred.BTB.misses::NoBranch            0                       # Number of BTB misses (Count)
system.cpu.branchPred.BTB.misses::Return            0                       # Number of BTB misses (Count)
system.cpu.branchPred.BTB.misses::CallDirect            0                       # Number of BTB misses (Count)
system.cpu.branchPred.BTB.misses::CallIndirect            0                       # Number of BTB misses (Count)
system.cpu.branchPred.BTB.misses::DirectCond            0                       # Number of BTB misses (Count)
system.cpu.branchPred.BTB.misses::DirectUncond            0                       # Number of BTB misses (Count)
system.cpu.branchPred.BTB.misses::IndirectCond            0                       # Number of BTB misses (Count)
system.cpu.branchPred.BTB.misses::IndirectUncond            0                       # Number of BTB misses (Count)
system.cpu.branchPred.BTB.misses::total             0                       # Number of BTB misses (Count)
system.cpu.branchPred.BTB.updates::NoBranch            0                       # Number of BTB updates (Count)
system.cpu.branchPred.BTB.updates::Return            0                       # Number of BTB updates (Count)
system.cpu.branchPred.BTB.updates::CallDirect            0                       # Number of BTB updates (Count)
system.cpu.branchPred.BTB.updates::CallIndirect            0                       # Number of BTB updates (Count)
system.cpu.branchPred.BTB.updates::DirectCond            0                       # Number of BTB updates (Count)
system.cpu.branchPred.BTB.updates::DirectUncond            0                       # Number of BTB updates (Count)
system.cpu.branchPred.BTB.updates::IndirectCond            0                       # Number of BTB updates (Count)
system.cpu.branchPred.BTB.updates::IndirectUncond            0                       # Number of BTB updates (Count)
system.cpu.branchPred.BTB.updates::total            0                       # Number of BTB updates (Count)
system.cpu.branchPred.BTB.mispredict::NoBranch            0                       # Number of BTB mispredictions. No target found or target wrong. (Count)
system.cpu.branchPred.BTB.mispredict::Return            0                       # Number of BTB mispredictions. No target found or target wrong. (Count)
system.cpu.branchPred.BTB.mispredict::CallDirect            0                       # Number of BTB mispredictions. No target found or target wrong. (Count)
system.cpu.branchPred.BTB.mispredict::CallIndirect            0                       # Number of BTB mispredictions. No target found or target wrong. (Count)
system.cpu.branchPred.BTB.mispredict::DirectCond            0                       # Number of BTB mispredictions. No target found or target wrong. (Count)
system.cpu.branchPred.BTB.mispredict::DirectUncond            0                       # Number of BTB mispredictions. No target found or target wrong. (Count)
system.cpu.branchPred.BTB.mispredict::IndirectCond            0                       # Number of BTB mispredictions. No target found or target wrong. (Count)
system.cpu.branchPred.BTB.mispredict::IndirectUncond            0                       # Number of BTB mispredictions. No target found or target wrong. (Count)
system.cpu.branchPred.BTB.mispredict::total            0                       # Number of BTB mispredictions. No target found or target wrong. (Count)
system.cpu.branchPred.BTB.conflict                  0                       # Number of conflicts. Tag hit but PC different. (Ratio)
system.cpu.branchPred.BTB.replace_map_0              0                                   0                                   0                                   0                                   0                                   0                                   0                                   0                       # Distribution of replaces (Count)
system.cpu.branchPred.BTB.replace_map_1              0                                   0                                   0                                   0                                   0                                   0                                   0                                   0                       # Distribution of replaces (Count)
system.cpu.branchPred.BTB.replace_map_2              0                                   0                                   0                                   0                                   0                                   0                                   0                                   0                       # Distribution of replaces (Count)
system.cpu.branchPred.BTB.replace_map_3              0                                   0                                   0                                   0                                   0                                   0                                   0                                   0                       # Distribution of replaces (Count)
system.cpu.branchPred.BTB.replace_map_4              0                                   0                                   0                                   0                                   0                                   0                                   0                                   0                       # Distribution of replaces (Count)
system.cpu.branchPred.BTB.replace_map_5              0                                   0                                   0                                   0                                   0                                   0                                   0                                   0                       # Distribution of replaces (Count)
system.cpu.branchPred.BTB.replace_map_6              0                                   0                                   0                                   0                                   0                                   0                                   0                                   0                       # Distribution of replaces (Count)
system.cpu.branchPred.BTB.replace_map_7              0                                   0                                   0                                   0                                   0                                   0                                   0                                   0                       # Distribution of replaces (Count)
system.cpu.branchPred.BTB.replace_map_8              0                                   0                                   0                                   0                                   0                                   0                                   0                                   0                       # Distribution of replaces (Count)
system.cpu.branchPred.BTB.replace_map_9              0                                   0                                   0                                   0                                   0                                   0                                   0                                   0                       # Distribution of replaces (Count)
system.cpu.branchPred.BTB.replace_map_10             0                                   0                                   0                                   0                                   0                                   0                                   0                                   0                       # Distribution of replaces (Count)
system.cpu.branchPred.BTB.replace_map_11             0                                   0                                   0                                   0                                   0                                   0                                   0                                   0                       # Distribution of replaces (Count)
system.cpu.branchPred.BTB.replace_map_12             0                                   0                                   0                                   0                                   0                                   0                                   0                                   0                       # Distribution of replaces (Count)
system.cpu.branchPred.BTB.replace_map_13             0                                   0                                   0                                   0                                   0                                   0                                   0                                   0                       # Distribution of replaces (Count)
system.cpu.branchPred.BTB.replace_map_14             0                                   0                                   0                                   0                                   0                                   0                                   0                                   0                       # Distribution of replaces (Count)
system.cpu.branchPred.BTB.replace_map_15             0                                   0                                   0                                   0                                   0                                   0                                   0                                   0                       # Distribution of replaces (Count)
system.cpu.branchPred.BTB.replace_map_16             0                                   0                                   0                                   0                                   0                                   0                                   0                                   0                       # Distribution of replaces (Count)
system.cpu.branchPred.BTB.replace_map_17             0                                   0                                   0                                   0                                   0                                   0                                   0                                   0                       # Distribution of replaces (Count)
system.cpu.branchPred.BTB.replace_map_18             0                                   0                                   0                                   0                                   0                                   0                                   0                                   0                       # Distribution of replaces (Count)
system.cpu.branchPred.BTB.replace_map_19             0                                   0                                   0                                   0                                   0                                   0                                   0                                   0                       # Distribution of replaces (Count)
system.cpu.branchPred.BTB.replace_map_20             0                                   0                                   0                                   0                                   0                                   0                                   0                                   0                       # Distribution of replaces (Count)
system.cpu.branchPred.BTB.replace_map_21             0                                   0                                   0                                   0                                   0                                   0                                   0                                   0                       # Distribution of replaces (Count)
system.cpu.branchPred.BTB.replace_map_22             0                                   0                                   0                                   0                                   0                                   0                                   0                                   0                       # Distribution of replaces (Count)
system.cpu.branchPred.BTB.replace_map_23             0                                   0                                   0                                   0                                   0                                   0                                   0                                   0                       # Distribution of replaces (Count)
system.cpu.branchPred.BTB.replace_map_24             0                                   0                                   0                                   0                                   0                                   0                                   0                                   0                       # Distribution of replaces (Count)
system.cpu.branchPred.BTB.replace_map_25             0                                   0                                   0                                   0                                   0                                   0                                   0                                   0                       # Distribution of replaces (Count)
system.cpu.branchPred.BTB.replace_map_26             0                                   0                                   0                                   0                                   0                                   0                                   0                                   0                       # Distribution of replaces (Count)
system.cpu.branchPred.BTB.replace_map_27             0                                   0                                   0                                   0                                   0                                   0                                   0                                   0                       # Distribution of replaces (Count)
system.cpu.branchPred.BTB.replace_map_28             0                                   0                                   0                                   0                                   0                                   0                                   0                                   0                       # Distribution of replaces (Count)
system.cpu.branchPred.BTB.replace_map_29             0                                   0                                   0                                   0                                   0                                   0                                   0                                   0                       # Distribution of replaces (Count)
system.cpu.branchPred.BTB.replace_map_30             0                                   0                                   0                                   0                                   0                                   0                                   0                                   0                       # Distribution of replaces (Count)
system.cpu.branchPred.BTB.replace_map_31             0                                   0                                   0                                   0                                   0                                   0                                   0                                   0                       # Distribution of replaces (Count)
system.cpu.branchPred.BTB.replace_map_32             0                                   0                                   0                                   0                                   0                                   0                                   0                                   0                       # Distribution of replaces (Count)
system.cpu.branchPred.BTB.replace_map_33             0                                   0                                   0                                   0                                   0                                   0                                   0                                   0                       # Distribution of replaces (Count)
system.cpu.branchPred.BTB.replace_map_34             0                                   0                                   0                                   0                                   0                                   0                                   0                                   0                       # Distribution of replaces (Count)
system.cpu.branchPred.BTB.replace_map_35             0                                   0                                   0                                   0                                   0                                   0                                   0                                   0                       # Distribution of replaces (Count)
system.cpu.branchPred.BTB.replace_map_36             0                                   0                                   0                                   0                                   0                                   0                                   0                                   0                       # Distribution of replaces (Count)
system.cpu.branchPred.BTB.replace_map_37             0                                   0                                   0                                   0                                   0                                   0                                   0                                   0                       # Distribution of replaces (Count)
system.cpu.branchPred.BTB.replace_map_38             0                                   0                                   0                                   0                                   0                                   0                                   0                                   0                       # Distribution of replaces (Count)
system.cpu.branchPred.BTB.replace_map_39             0                                   0                                   0                                   0                                   0                                   0                                   0                                   0                       # Distribution of replaces (Count)
system.cpu.branchPred.BTB.replace_map_40             0                                   0                                   0                                   0                                   0                                   0                                   0                                   0                       # Distribution of replaces (Count)
system.cpu.branchPred.BTB.replace_map_41             0                                   0                                   0                                   0                                   0                                   0                                   0                                   0                       # Distribution of replaces (Count)
system.cpu.branchPred.BTB.replace_map_42             0                                   0                                   0                                   0                                   0                                   0                                   0                                   0                       # Distribution of replaces (Count)
system.cpu.branchPred.BTB.replace_map_43             0                                   0                                   0                                   0                                   0                                   0                                   0                                   0                       # Distribution of replaces (Count)
system.cpu.branchPred.BTB.replace_map_44             0                                   0                                   0                                   0                                   0                                   0                                   0                                   0                       # Distribution of replaces (Count)
system.cpu.branchPred.BTB.replace_map_45             0                                   0                                   0                                   0                                   0                                   0                                   0                                   0                       # Distribution of replaces (Count)
system.cpu.branchPred.BTB.replace_map_46             0                                   0                                   0                                   0                                   0                                   0                                   0                                   0                       # Distribution of replaces (Count)
system.cpu.branchPred.BTB.replace_map_47             0                                   0                                   0                                   0                                   0                                   0                                   0                                   0                       # Distribution of replaces (Count)
system.cpu.branchPred.BTB.replace_map_48             0                                   0                                   0                                   0                                   0                                   0                                   0                                   0                       # Distribution of replaces (Count)
system.cpu.branchPred.BTB.replace_map_49             0                                   0                                   0                                   0                                   0                                   0                                   0                                   0                       # Distribution of replaces (Count)
system.cpu.branchPred.BTB.replace_map_50             0                                   0                                   0                                   0                                   0                                   0                                   0                                   0                       # Distribution of replaces (Count)
system.cpu.branchPred.BTB.replace_map_51             0                                   0                                   0                                   0                                   0                                   0                                   0                                   0                       # Distribution of replaces (Count)
system.cpu.branchPred.BTB.replace_map_52             0                                   0                                   0                                   0                                   0                                   0                                   0                                   0                       # Distribution of replaces (Count)
system.cpu.branchPred.BTB.replace_map_53             0                                   0                                   0                                   0                                   0                                   0                                   0                                   0                       # Distribution of replaces (Count)
system.cpu.branchPred.BTB.replace_map_54             0                                   0                                   0                                   0                                   0                                   0                                   0                                   0                       # Distribution of replaces (Count)
[...]
system.mem_ctrls.dram.perBankWrBursts::12            0                       # Per bank write bursts (Count)
system.mem_ctrls.dram.perBankWrBursts::13            0                       # Per bank write bursts (Count)
system.mem_ctrls.dram.perBankWrBursts::14            0                       # Per bank write bursts (Count)
system.mem_ctrls.dram.perBankWrBursts::15            0                       # Per bank write bursts (Count)
system.mem_ctrls.dram.totQLat                81049000                       # Total ticks spent queuing (Tick)
system.mem_ctrls.dram.totBusLat              63120000                       # Total ticks spent in databus transfers (Tick)
system.mem_ctrls.dram.totMemAccLat          317749000                       # Total ticks spent from burst creation until serviced by the DRAM (Tick)
system.mem_ctrls.dram.avgQLat                 6420.23                       # Average queueing delay per DRAM burst ((Tick/Count))
system.mem_ctrls.dram.avgBusLat               5000.00                       # Average bus latency per DRAM burst ((Tick/Count))
system.mem_ctrls.dram.avgMemAccLat           25170.23                       # Average memory access latency per DRAM burst ((Tick/Count))
system.mem_ctrls.dram.readRowHits               10482                       # Number of row buffer hits during reads (Count)
system.mem_ctrls.dram.writeRowHits                  0                       # Number of row buffer hits during writes (Count)
system.mem_ctrls.dram.readRowHitRate            83.03                       # Row buffer hit rate for reads (Ratio)
system.mem_ctrls.dram.writeRowHitRate             nan                       # Row buffer hit rate for writes (Ratio)
system.mem_ctrls.dram.bytesPerActivate::samples         2130                       # Bytes accessed per row activation (Byte)
system.mem_ctrls.dram.bytesPerActivate::mean   378.501408                       # Bytes accessed per row activation (Byte)
system.mem_ctrls.dram.bytesPerActivate::gmean   223.593765                       # Bytes accessed per row activation (Byte)
system.mem_ctrls.dram.bytesPerActivate::stdev   369.182805                       # Bytes accessed per row activation (Byte)
system.mem_ctrls.dram.bytesPerActivate::0-127          610     28.64%     28.64% # Bytes accessed per row activation (Byte)
system.mem_ctrls.dram.bytesPerActivate::128-255          559     26.24%     54.88% # Bytes accessed per row activation (Byte)
system.mem_ctrls.dram.bytesPerActivate::256-383          206      9.67%     64.55% # Bytes accessed per row activation (Byte)
system.mem_ctrls.dram.bytesPerActivate::384-511          126      5.92%     70.47% # Bytes accessed per row activation (Byte)
system.mem_ctrls.dram.bytesPerActivate::512-639           87      4.08%     74.55% # Bytes accessed per row activation (Byte)
system.mem_ctrls.dram.bytesPerActivate::640-767           57      2.68%     77.23% # Bytes accessed per row activation (Byte)
system.mem_ctrls.dram.bytesPerActivate::768-895           36      1.69%     78.92% # Bytes accessed per row activation (Byte)
system.mem_ctrls.dram.bytesPerActivate::896-1023           25      1.17%     80.09% # Bytes accessed per row activation (Byte)
system.mem_ctrls.dram.bytesPerActivate::1024-1151          424     19.91%    100.00% # Bytes accessed per row activation (Byte)
system.mem_ctrls.dram.bytesPerActivate::total         2130                       # Bytes accessed per row activation (Byte)
system.mem_ctrls.dram.dramBytesRead            807936                       # Total bytes read (Byte)
system.mem_ctrls.dram.dramBytesWritten              0                       # Total bytes written (Byte)
system.mem_ctrls.dram.avgRdBW              139.119977                       # Average DRAM read bandwidth in MiBytes/s ((Byte/Second))
system.mem_ctrls.dram.avgWrBW                       0                       # Average DRAM write bandwidth in MiBytes/s ((Byte/Second))
system.mem_ctrls.dram.peakBW                 12800.00                       # Theoretical peak bandwidth in MiByte/s ((Byte/Second))
system.mem_ctrls.dram.busUtil                    1.09                       # Data bus utilization in percentage (Ratio)
system.mem_ctrls.dram.busUtilRead                1.09                       # Data bus utilization in percentage for reads (Ratio)
system.mem_ctrls.dram.busUtilWrite               0.00                       # Data bus utilization in percentage for writes (Ratio)
system.mem_ctrls.dram.pageHitRate               83.03                       # Row buffer hit rate, read and write combined (Ratio)
system.mem_ctrls.dram.power_state.pwrStateResidencyTicks::UNDEFINED   5807476500                       # Cumulative time (in ticks) in various power states (Tick)
system.mem_ctrls.dram.rank0.actEnergy         7718340                       # Energy for activate commands per rank (pJ) (Joule)
system.mem_ctrls.dram.rank0.preEnergy         4075830                       # Energy for precharge commands per rank (pJ) (Joule)
system.mem_ctrls.dram.rank0.readEnergy       46488540                       # Energy for read commands per rank (pJ) (Joule)
system.mem_ctrls.dram.rank0.writeEnergy             0                       # Energy for write commands per rank (pJ) (Joule)
system.mem_ctrls.dram.rank0.refreshEnergy 457906800.000000                       # Energy for refresh commands per rank (pJ) (Joule)
system.mem_ctrls.dram.rank0.actBackEnergy    669213630                       # Energy for active background per rank (pJ) (Joule)
system.mem_ctrls.dram.rank0.preBackEnergy   1666523040                       # Energy for precharge background per rank (pJ) (Joule)
system.mem_ctrls.dram.rank0.actPowerDownEnergy            0                       # Energy for active power-down per rank (pJ) (Joule)
system.mem_ctrls.dram.rank0.prePowerDownEnergy            0                       # Energy for precharge power-down per rank (pJ) (Joule)
system.mem_ctrls.dram.rank0.selfRefreshEnergy            0                       # Energy for self refresh per rank (pJ) (Joule)
system.mem_ctrls.dram.rank0.totalEnergy    2851926180                       # Total energy per rank (pJ) (Joule)
system.mem_ctrls.dram.rank0.averagePower   491.078385                       # Core power per rank (mW) (Watt)
system.mem_ctrls.dram.rank0.totalIdleTime            0                       # Total Idle time Per DRAM Rank (Tick)
system.mem_ctrls.dram.rank0.pwrStateTime::IDLE   4324903250                       # Time in different power states (Tick)
system.mem_ctrls.dram.rank0.pwrStateTime::REF    193700000                       # Time in different power states (Tick)
system.mem_ctrls.dram.rank0.pwrStateTime::SREF            0                       # Time in different power states (Tick)
system.mem_ctrls.dram.rank0.pwrStateTime::PRE_PDN            0                       # Time in different power states (Tick)
system.mem_ctrls.dram.rank0.pwrStateTime::ACT   1288873250                       # Time in different power states (Tick)
system.mem_ctrls.dram.rank0.pwrStateTime::ACT_PDN            0                       # Time in different power states (Tick)
system.mem_ctrls.dram.rank1.actEnergy         7575540                       # Energy for activate commands per rank (pJ) (Joule)
system.mem_ctrls.dram.rank1.preEnergy         4007520                       # Energy for precharge commands per rank (pJ) (Joule)
system.mem_ctrls.dram.rank1.readEnergy       43646820                       # Energy for read commands per rank (pJ) (Joule)
system.mem_ctrls.dram.rank1.writeEnergy             0                       # Energy for write commands per rank (pJ) (Joule)
system.mem_ctrls.dram.rank1.refreshEnergy 457906800.000000                       # Energy for refresh commands per rank (pJ) (Joule)
system.mem_ctrls.dram.rank1.actBackEnergy    648016470                       # Energy for active background per rank (pJ) (Joule)
system.mem_ctrls.dram.rank1.preBackEnergy   1684373280                       # Energy for precharge background per rank (pJ) (Joule)
system.mem_ctrls.dram.rank1.actPowerDownEnergy            0                       # Energy for active power-down per rank (pJ) (Joule)
system.mem_ctrls.dram.rank1.prePowerDownEnergy            0                       # Energy for precharge power-down per rank (pJ) (Joule)
system.mem_ctrls.dram.rank1.selfRefreshEnergy            0                       # Energy for self refresh per rank (pJ) (Joule)
system.mem_ctrls.dram.rank1.totalEnergy    2845526430                       # Total energy per rank (pJ) (Joule)
system.mem_ctrls.dram.rank1.averagePower   489.976400                       # Core power per rank (mW) (Watt)
system.mem_ctrls.dram.rank1.totalIdleTime            0                       # Total Idle time Per DRAM Rank (Tick)
system.mem_ctrls.dram.rank1.pwrStateTime::IDLE   4371720750                       # Time in different power states (Tick)
system.mem_ctrls.dram.rank1.pwrStateTime::REF    193700000                       # Time in different power states (Tick)
system.mem_ctrls.dram.rank1.pwrStateTime::SREF            0                       # Time in different power states (Tick)
system.mem_ctrls.dram.rank1.pwrStateTime::PRE_PDN            0                       # Time in different power states (Tick)
system.mem_ctrls.dram.rank1.pwrStateTime::ACT   1242055750                       # Time in different power states (Tick)
system.mem_ctrls.dram.rank1.pwrStateTime::ACT_PDN            0                       # Time in different power states (Tick)
system.mem_ctrls.power_state.pwrStateResidencyTicks::UNDEFINED   5807476500                       # Cumulative time (in ticks) in various power states (Tick)
system.membus.transDist::ReadResp                5601                       # Transaction distribution (Count)
system.membus.transDist::ReadExReq               7023                       # Transaction distribution (Count)
system.membus.transDist::ReadExResp              7023                       # Transaction distribution (Count)
system.membus.transDist::ReadSharedReq           5601                       # Transaction distribution (Count)
system.membus.pktCount_system.l2.mem_side_port::system.mem_ctrls.port        25248                       # Packet count per connected requestor and responder (Count)
system.membus.pktCount_system.l2.mem_side_port::total        25248                       # Packet count per connected requestor and responder (Count)
system.membus.pktCount::total                   25248                       # Packet count per connected requestor and responder (Count)
system.membus.pktSize_system.l2.mem_side_port::system.mem_ctrls.port       807936                       # Cumulative packet size per connected requestor and responder (Byte)
system.membus.pktSize_system.l2.mem_side_port::total       807936                       # Cumulative packet size per connected requestor and responder (Byte)
system.membus.pktSize::total                   807936                       # Cumulative packet size per connected requestor and responder (Byte)
system.membus.snoops                                0                       # Total snoops (Count)
system.membus.snoopTraffic                          0                       # Total snoop traffic (Byte)
system.membus.snoopFanout::samples              12624                       # Request fanout histogram (Count)
system.membus.snoopFanout::mean                     0                       # Request fanout histogram (Count)
system.membus.snoopFanout::stdev                    0                       # Request fanout histogram (Count)
system.membus.snoopFanout::underflows               0      0.00%      0.00% # Request fanout histogram (Count)
system.membus.snoopFanout::0                    12624    100.00%    100.00% # Request fanout histogram (Count)
system.membus.snoopFanout::1                        0      0.00%    100.00% # Request fanout histogram (Count)
system.membus.snoopFanout::overflows                0      0.00%    100.00% # Request fanout histogram (Count)
system.membus.snoopFanout::min_value                0                       # Request fanout histogram (Count)
system.membus.snoopFanout::max_value                0                       # Request fanout histogram (Count)
system.membus.snoopFanout::total                12624                       # Request fanout histogram (Count)
system.membus.power_state.pwrStateResidencyTicks::UNDEFINED   5807476500                       # Cumulative time (in ticks) in various power states (Tick)
system.membus.reqLayer2.occupancy            15443500                       # Layer occupancy (ticks) (Tick)
system.membus.reqLayer2.utilization               0.0                       # Layer utilization (Ratio)
system.membus.respLayer1.occupancy           66820250                       # Layer occupancy (ticks) (Tick)
system.membus.respLayer1.utilization              0.0                       # Layer utilization (Ratio)
system.membus.snoop_filter.totRequests          12624                       # Total number of requests made to the snoop filter. (Count)
system.membus.snoop_filter.hitSingleRequests            0                       # Number of requests hitting in the snoop filter with a single holder of the requested data. (Count)
system.membus.snoop_filter.hitMultiRequests            0                       # Number of requests hitting in the snoop filter with multiple (>1) holders of the requested data. (Count)
system.membus.snoop_filter.totSnoops                0                       # Total number of snoops made to the snoop filter. (Count)
system.membus.snoop_filter.hitSingleSnoops            0                       # Number of snoops hitting in the snoop filter with a single holder of the requested data. (Count)
system.membus.snoop_filter.hitMultiSnoops            0                       # Number of snoops hitting in the snoop filter with multiple (>1) holders of the requested data. (Count)
system.tol2bus.transDist::ReadResp              14093                       # Transaction distribution (Count)
system.tol2bus.transDist::WritebackDirty        16733                       # Transaction distribution (Count)
system.tol2bus.transDist::WritebackClean          793                       # Transaction distribution (Count)
system.tol2bus.transDist::CleanEvict             3419                       # Transaction distribution (Count)
system.tol2bus.transDist::UpgradeReq               16                       # Transaction distribution (Count)
system.tol2bus.transDist::UpgradeResp              16                       # Transaction distribution (Count)
system.tol2bus.transDist::ReadExReq             10522                       # Transaction distribution (Count)
system.tol2bus.transDist::ReadExResp            10522                       # Transaction distribution (Count)
system.tol2bus.transDist::ReadCleanReq           2415                       # Transaction distribution (Count)
system.tol2bus.transDist::ReadSharedReq         11678                       # Transaction distribution (Count)
system.tol2bus.pktCount_system.cpu.icache.mem_side_port::system.l2.cpu_side_port         5600                       # Packet count per connected requestor and responder (Count)
system.tol2bus.pktCount_system.cpu.dcache.mem_side_port::system.l2.cpu_side_port        64584                       # Packet count per connected requestor and responder (Count)
system.tol2bus.pktCount::total                  70184                       # Packet count per connected requestor and responder (Count)
system.tol2bus.pktSize_system.cpu.icache.mem_side_port::system.l2.cpu_side_port       203840                       # Cumulative packet size per connected requestor and responder (Byte)
system.tol2bus.pktSize_system.cpu.dcache.mem_side_port::system.l2.cpu_side_port      2491712                       # Cumulative packet size per connected requestor and responder (Byte)
system.tol2bus.pktSize::total                 2695552                       # Cumulative packet size per connected requestor and responder (Byte)
system.tol2bus.snoops                              23                       # Total snoops (Count)
system.tol2bus.snoopTraffic                      1472                       # Total snoop traffic (Byte)
system.tol2bus.snoopFanout::samples             24631                       # Request fanout histogram (Count)
system.tol2bus.snoopFanout::mean             0.003126                       # Request fanout histogram (Count)
system.tol2bus.snoopFanout::stdev            0.055826                       # Request fanout histogram (Count)
system.tol2bus.snoopFanout::underflows              0      0.00%      0.00% # Request fanout histogram (Count)
system.tol2bus.snoopFanout::0                   24554     99.69%     99.69% # Request fanout histogram (Count)
system.tol2bus.snoopFanout::1                      77      0.31%    100.00% # Request fanout histogram (Count)
system.tol2bus.snoopFanout::2                       0      0.00%    100.00% # Request fanout histogram (Count)
system.tol2bus.snoopFanout::3                       0      0.00%    100.00% # Request fanout histogram (Count)
system.tol2bus.snoopFanout::4                       0      0.00%    100.00% # Request fanout histogram (Count)
system.tol2bus.snoopFanout::overflows               0      0.00%    100.00% # Request fanout histogram (Count)
system.tol2bus.snoopFanout::min_value               0                       # Request fanout histogram (Count)
system.tol2bus.snoopFanout::max_value               1                       # Request fanout histogram (Count)
system.tol2bus.snoopFanout::total               24631                       # Request fanout histogram (Count)
system.tol2bus.power_state.pwrStateResidencyTicks::UNDEFINED   5807476500                       # Cumulative time (in ticks) in various power states (Tick)
system.tol2bus.reqLayer0.occupancy           40314000                       # Layer occupancy (ticks) (Tick)
system.tol2bus.reqLayer0.utilization              0.0                       # Layer utilization (Ratio)
system.tol2bus.respLayer0.occupancy           3622500                       # Layer occupancy (ticks) (Tick)
system.tol2bus.respLayer0.utilization             0.0                       # Layer utilization (Ratio)
system.tol2bus.respLayer1.occupancy          33308000                       # Layer occupancy (ticks) (Tick)
system.tol2bus.respLayer1.utilization             0.0                       # Layer utilization (Ratio)
system.tol2bus.snoop_filter.totRequests         45576                       # Total number of requests made to the snoop filter. (Count)
system.tol2bus.snoop_filter.hitSingleRequests        20961                       # Number of requests hitting in the snoop filter with a single holder of the requested data. (Count)
system.tol2bus.snoop_filter.hitMultiRequests           64                       # Number of requests hitting in the snoop filter with multiple (>1) holders of the requested data. (Count)
system.tol2bus.snoop_filter.totSnoops               0                       # Total number of snoops made to the snoop filter. (Count)
system.tol2bus.snoop_filter.hitSingleSnoops            0                       # Number of snoops hitting in the snoop filter with a single holder of the requested data. (Count)
system.tol2bus.snoop_filter.hitMultiSnoops            0                       # Number of snoops hitting in the snoop filter with multiple (>1) holders of the requested data. (Count)
system.voltage_domain.voltage                       1                       # Voltage in Volts (Volt)
system.workload.inst.arm                            0                       # number of arm instructions executed (Count)
system.workload.inst.quiesce                        0                       # number of quiesce instructions executed (Count)

---------- End Simulation Statistics   ----------
