
---------- Begin Simulation Statistics ----------
simSeconds                                   0.005821                       # Number of seconds simulated (Second)
simTicks                                   5820614000                       # Number of ticks simulated (Tick)
finalTick                                  5820614000                       # Number of ticks from beginning of simulation (restored from checkpoints and never reset) (Tick)
simFreq                                  1000000000000                       # The number of ticks per simulated second ((Tick/Second))
hostSeconds                                     27.62                       # Real time elapsed on the host (Second)
hostTickRate                                210733502                       # The number of ticks simulated per host second (ticks/s) ((Tick/Second))
hostMemory                                     749184                       # Number of bytes of host memory used (Byte)
simInsts                                      8560538                       # Number of instructions simulated (Count)
simOps                                       15647606                       # Number of ops (including micro ops) simulated (Count)
hostInstRate                                   309931                       # Simulator instruction rate (inst/s) ((Count/Second))
hostOpRate                                     566515                       # Simulator op (including micro ops) rate (op/s) ((Count/Second))
system.clk_domain.clock                          1000                       # Clock period in ticks (Tick)
system.cpu.numCycles                         11641229                       # Number of cpu cycles simulated (Cycle)
system.cpu.cpi                               1.359871                       # CPI: cycles per instruction (core level) ((Cycle/Count))
system.cpu.ipc                               0.735364                       # IPC: instructions per cycle (core level) ((Count/Cycle))
system.cpu.numWorkItemsStarted                      0                       # Number of work items this cpu started (Count)
system.cpu.numWorkItemsCompleted                    0                       # Number of work items this cpu completed (Count)
system.cpu.instsAdded                        22843027                       # Number of instructions added to the IQ (excludes non-spec) (Count)
system.cpu.nonSpecInstsAdded                   197654                       # Number of non-speculative instructions added to the IQ (Count)
system.cpu.instsIssued                       21197119                       # Number of instructions issued (Count)
system.cpu.squashedInstsIssued                    234                       # Number of squashed instructions issued (Count)
system.cpu.squashedInstsExamined              7393069                       # Number of squashed instructions iterated over during squash; mainly for profiling (Count)
system.cpu.squashedOperandsExamined          11763093                       # Number of squashed operands that are examined and possibly removed from graph (Count)
system.cpu.squashedNonSpecRemoved                 755                       # Number of squashed non-spec instructions that were removed (Count)
system.cpu.numIssuedDist::samples            11487691                       # Number of insts issued each cycle (Count)
system.cpu.numIssuedDist::mean               1.845203                       # Number of insts issued each cycle (Count)
system.cpu.numIssuedDist::stdev              2.378245                       # Number of insts issued each cycle (Count)
system.cpu.numIssuedDist::underflows                0      0.00%      0.00% # Number of insts issued each cycle (Count)
system.cpu.numIssuedDist::0                   5031926     43.80%     43.80% # Number of insts issued each cycle (Count)
system.cpu.numIssuedDist::1                   1649379     14.36%     58.16% # Number of insts issued each cycle (Count)
system.cpu.numIssuedDist::2                   1629115     14.18%     72.34% # Number of insts issued each cycle (Count)
system.cpu.numIssuedDist::3                    800031      6.96%     79.31% # Number of insts issued each cycle (Count)
system.cpu.numIssuedDist::4                    535954      4.67%     83.97% # Number of insts issued each cycle (Count)
system.cpu.numIssuedDist::5                    798179      6.95%     90.92% # Number of insts issued each cycle (Count)
system.cpu.numIssuedDist::6                    351064      3.06%     93.98% # Number of insts issued each cycle (Count)
system.cpu.numIssuedDist::7                    316928      2.76%     96.73% # Number of insts issued each cycle (Count)
system.cpu.numIssuedDist::8                    137293      1.20%     97.93% # Number of insts issued each cycle (Count)
system.cpu.numIssuedDist::9                    134447      1.17%     99.10% # Number of insts issued each cycle (Count)
system.cpu.numIssuedDist::10                    57592      0.50%     99.60% # Number of insts issued each cycle (Count)
system.cpu.numIssuedDist::11                    24710      0.22%     99.82% # Number of insts issued each cycle (Count)
system.cpu.numIssuedDist::12                    10649      0.09%     99.91% # Number of insts issued each cycle (Count)
system.cpu.numIssuedDist::13                     4605      0.04%     99.95% # Number of insts issued each cycle (Count)
system.cpu.numIssuedDist::14                     4228      0.04%     99.99% # Number of insts issued each cycle (Count)
system.cpu.numIssuedDist::15                      175      0.00%     99.99% # Number of insts issued each cycle (Count)
system.cpu.numIssuedDist::16                      850      0.01%    100.00% # Number of insts issued each cycle (Count)
system.cpu.numIssuedDist::17                       19      0.00%    100.00% # Number of insts issued each cycle (Count)
system.cpu.numIssuedDist::18                       57      0.00%    100.00% # Number of insts issued each cycle (Count)
system.cpu.numIssuedDist::19                      490      0.00%    100.00% # Number of insts issued each cycle (Count)
system.cpu.numIssuedDist::overflows                 0      0.00%    100.00% # Number of insts issued each cycle (Count)
system.cpu.numIssuedDist::min_value                 0                       # Number of insts issued each cycle (Count)
system.cpu.numIssuedDist::max_value                19                       # Number of insts issued each cycle (Count)
system.cpu.numIssuedDist::total              11487691                       # Number of insts issued each cycle (Count)
system.cpu.statFuBusy::No_OpClass                   0      0.00%      0.00% # attempts to use FU when none available (Count)
system.cpu.statFuBusy::IntAlu                      10     13.33%     13.33% # attempts to use FU when none available (Count)
system.cpu.statFuBusy::IntMult                      0      0.00%     13.33% # attempts to use FU when none available (Count)
system.cpu.statFuBusy::IntDiv                       0      0.00%     13.33% # attempts to use FU when none available (Count)
system.cpu.statFuBusy::FloatAdd                     0      0.00%     13.33% # attempts to use FU when none available (Count)
system.cpu.statFuBusy::FloatCmp                     0      0.00%     13.33% # attempts to use FU when none available (Count)
system.cpu.statFuBusy::FloatCvt                     0      0.00%     13.33% # attempts to use FU when none available (Count)
system.cpu.statFuBusy::FloatMult                    0      0.00%     13.33% # attempts to use FU when none available (Count)
system.cpu.statFuBusy::FloatMultAcc                 0      0.00%     13.33% # attempts to use FU when none available (Count)
system.cpu.statFuBusy::FloatDiv                     0      0.00%     13.33% # attempts to use FU when none available (Count)
system.cpu.statFuBusy::FloatMisc                    0      0.00%     13.33% # attempts to use FU when none available (Count)
system.cpu.statFuBusy::FloatSqrt                    0      0.00%     13.33% # attempts to use FU when none available (Count)
system.cpu.statFuBusy::SimdAdd                      0      0.00%     13.33% # attempts to use FU when none available (Count)
system.cpu.statFuBusy::SimdAddAcc                   0      0.00%     13.33% # attempts to use FU when none available (Count)
system.cpu.statFuBusy::SimdAlu                      0      0.00%     13.33% # attempts to use FU when none available (Count)
system.cpu.statFuBusy::SimdCmp                      0      0.00%     13.33% # attempts to use FU when none available (Count)
system.cpu.statFuBusy::SimdCvt                      0      0.00%     13.33% # attempts to use FU when none available (Count)
system.cpu.statFuBusy::SimdMisc                     0      0.00%     13.33% # attempts to use FU when none available (Count)
system.cpu.statFuBusy::SimdMult                     0      0.00%     13.33% # attempts to use FU when none available (Count)
system.cpu.statFuBusy::SimdMultAcc                  0      0.00%     13.33% # attempts to use FU when none available (Count)
system.cpu.statFuBusy::SimdMatMultAcc               0      0.00%     13.33% # attempts to use FU when none available (Count)
system.cpu.statFuBusy::SimdShift                    0      0.00%     13.33% # attempts to use FU when none available (Count)
system.cpu.statFuBusy::SimdShiftAcc                 0      0.00%     13.33% # attempts to use FU when none available (Count)
system.cpu.statFuBusy::SimdDiv                      0      0.00%     13.33% # attempts to use FU when none available (Count)
system.cpu.statFuBusy::SimdSqrt                     0      0.00%     13.33% # attempts to use FU when none available (Count)
system.cpu.statFuBusy::SimdFloatAdd                 0      0.00%     13.33% # attempts to use FU when none available (Count)
system.cpu.statFuBusy::SimdFloatAlu                 0      0.00%     13.33% # attempts to use FU when none available (Count)
system.cpu.statFuBusy::SimdFloatCmp                 0      0.00%     13.33% # attempts to use FU when none available (Count)
system.cpu.statFuBusy::SimdFloatCvt                 0      0.00%     13.33% # attempts to use FU when none available (Count)
system.cpu.statFuBusy::SimdFloatDiv                 0      0.00%     13.33% # attempts to use FU when none available (Count)
system.cpu.statFuBusy::SimdFloatMisc                0      0.00%     13.33% # attempts to use FU when none available (Count)
system.cpu.statFuBusy::SimdFloatMult                0      0.00%     13.33% # attempts to use FU when none available (Count)
system.cpu.statFuBusy::SimdFloatMultAcc             0      0.00%     13.33% # attempts to use FU when none available (Count)
system.cpu.statFuBusy::SimdFloatMatMultAcc            0      0.00%     13.33% # attempts to use FU when none available (Count)
system.cpu.statFuBusy::SimdFloatSqrt                0      0.00%     13.33% # attempts to use FU when none available (Count)
system.cpu.statFuBusy::SimdReduceAdd                0      0.00%     13.33% # attempts to use FU when none available (Count)
system.cpu.statFuBusy::SimdReduceAlu                0      0.00%     13.33% # attempts to use FU when none available (Count)
system.cpu.statFuBusy::SimdReduceCmp                0      0.00%     13.33% # attempts to use FU when none available (Count)
system.cpu.statFuBusy::SimdFloatReduceAdd            0      0.00%     13.33% # attempts to use FU when none available (Count)
system.cpu.statFuBusy::SimdFloatReduceCmp            0      0.00%     13.33% # attempts to use FU when none available (Count)
system.cpu.statFuBusy::SimdAes                      0      0.00%     13.33% # attempts to use FU when none available (Count)
system.cpu.statFuBusy::SimdAesMix                   0      0.00%     13.33% # attempts to use FU when none available (Count)
system.cpu.statFuBusy::SimdSha1Hash                 0      0.00%     13.33% # attempts to use FU when none available (Count)
system.cpu.statFuBusy::SimdSha1Hash2                0      0.00%     13.33% # attempts to use FU when none available (Count)
system.cpu.statFuBusy::SimdSha256Hash               0      0.00%     13.33% # attempts to use FU when none available (Count)
system.cpu.statFuBusy::SimdSha256Hash2              0      0.00%     13.33% # attempts to use FU when none available (Count)
system.cpu.statFuBusy::SimdShaSigma2                0      0.00%     13.33% # attempts to use FU when none available (Count)
system.cpu.statFuBusy::SimdShaSigma3                0      0.00%     13.33% # attempts to use FU when none available (Count)
system.cpu.statFuBusy::SimdPredAlu                  0      0.00%     13.33% # attempts to use FU when none available (Count)
system.cpu.statFuBusy::Matrix                       0      0.00%     13.33% # attempts to use FU when none available (Count)
system.cpu.statFuBusy::MatrixMov                    0      0.00%     13.33% # attempts to use FU when none available (Count)
system.cpu.statFuBusy::MatrixOP                     0      0.00%     13.33% # attempts to use FU when none available (Count)
system.cpu.statFuBusy::MemRead                     28     37.33%     50.67% # attempts to use FU when none available (Count)
system.cpu.statFuBusy::MemWrite                    21     28.00%     78.67% # attempts to use FU when none available (Count)
system.cpu.statFuBusy::FloatMemRead                11     14.67%     93.33% # attempts to use FU when none available (Count)
system.cpu.statFuBusy::FloatMemWrite                5      6.67%    100.00% # attempts to use FU when none available (Count)
system.cpu.statFuBusy::IprAccess                    0      0.00%    100.00% # attempts to use FU when none available (Count)
system.cpu.statFuBusy::InstPrefetch                 0      0.00%    100.00% # attempts to use FU when none available (Count)
system.cpu.statFuBusy::SimdUnitStrideLoad            0      0.00%    100.00% # attempts to use FU when none available (Count)
system.cpu.statFuBusy::SimdUnitStrideStore            0      0.00%    100.00% # attempts to use FU when none available (Count)
system.cpu.statFuBusy::SimdUnitStrideMaskLoad            0      0.00%    100.00% # attempts to use FU when none available (Count)
system.cpu.statFuBusy::SimdUnitStrideMaskStore            0      0.00%    100.00% # attempts to use FU when none available (Count)
system.cpu.statFuBusy::SimdStridedLoad              0      0.00%    100.00% # attempts to use FU when none available (Count)
system.cpu.statFuBusy::SimdStridedStore             0      0.00%    100.00% # attempts to use FU when none available (Count)
system.cpu.statFuBusy::SimdIndexedLoad              0      0.00%    100.00% # attempts to use FU when none available (Count)
system.cpu.statFuBusy::SimdIndexedStore             0      0.00%    100.00% # attempts to use FU when none available (Count)
system.cpu.statFuBusy::SimdWholeRegisterLoad            0      0.00%    100.00% # attempts to use FU when none available (Count)
system.cpu.statFuBusy::SimdWholeRegisterStore            0      0.00%    100.00% # attempts to use FU when none available (Count)
system.cpu.statFuBusy::SimdUnitStrideFaultOnlyFirstLoad            0      0.00%    100.00% # attempts to use FU when none available (Count)
system.cpu.statFuBusy::SimdUnitStrideSegmentedLoad            0      0.00%    100.00% # attempts to use FU when none available (Count)
system.cpu.statFuBusy::SimdUnitStrideSegmentedStore            0      0.00%    100.00% # attempts to use FU when none available (Count)
system.cpu.statFuBusy::SimdExt                      0      0.00%    100.00% # attempts to use FU when none available (Count)
system.cpu.statFuBusy::SimdFloatExt                 0      0.00%    100.00% # attempts to use FU when none available (Count)
system.cpu.statFuBusy::SimdConfig                   0      0.00%    100.00% # attempts to use FU when none available (Count)
system.cpu.statIssuedInstType_0::No_OpClass       114821      0.54%      0.54% # Number of instructions issued per FU type, per thread (Count)
system.cpu.statIssuedInstType_0::IntAlu      17019615     80.29%     80.83% # Number of instructions issued per FU type, per thread (Count)
system.cpu.statIssuedInstType_0::IntMult         1706      0.01%     80.84% # Number of instructions issued per FU type, per thread (Count)
system.cpu.statIssuedInstType_0::IntDiv        547565      2.58%     83.43% # Number of instructions issued per FU type, per thread (Count)
system.cpu.statIssuedInstType_0::FloatAdd         3966      0.02%     83.44% # Number of instructions issued per FU type, per thread (Count)
system.cpu.statIssuedInstType_0::FloatCmp            0      0.00%     83.44% # Number of instructions issued per FU type, per thread (Count)
system.cpu.statIssuedInstType_0::FloatCvt            0      0.00%     83.44% # Number of instructions issued per FU type, per thread (Count)
system.cpu.statIssuedInstType_0::FloatMult            0      0.00%     83.44% # Number of instructions issued per FU type, per thread (Count)
system.cpu.statIssuedInstType_0::FloatMultAcc            0      0.00%     83.44% # Number of instructions issued per FU type, per thread (Count)
system.cpu.statIssuedInstType_0::FloatDiv            0      0.00%     83.44% # Number of instructions issued per FU type, per thread (Count)
system.cpu.statIssuedInstType_0::FloatMisc            0      0.00%     83.44% # Number of instructions issued per FU type, per thread (Count)
system.cpu.statIssuedInstType_0::FloatSqrt            0      0.00%     83.44% # Number of instructions issued per FU type, per thread (Count)
system.cpu.statIssuedInstType_0::SimdAdd        36528      0.17%     83.62% # Number of instructions issued per FU type, per thread (Count)
system.cpu.statIssuedInstType_0::SimdAddAcc            0      0.00%     83.62% # Number of instructions issued per FU type, per thread (Count)
system.cpu.statIssuedInstType_0::SimdAlu       296883      1.40%     85.02% # Number of instructions issued per FU type, per thread (Count)
system.cpu.statIssuedInstType_0::SimdCmp           78      0.00%     85.02% # Number of instructions issued per FU type, per thread (Count)
system.cpu.statIssuedInstType_0::SimdCvt        19650      0.09%     85.11% # Number of instructions issued per FU type, per thread (Count)
system.cpu.statIssuedInstType_0::SimdMisc        50036      0.24%     85.35% # Number of instructions issued per FU type, per thread (Count)
system.cpu.statIssuedInstType_0::SimdMult            0      0.00%     85.35% # Number of instructions issued per FU type, per thread (Count)
system.cpu.statIssuedInstType_0::SimdMultAcc            0      0.00%     85.35% # Number of instructions issued per FU type, per thread (Count)
system.cpu.statIssuedInstType_0::SimdMatMultAcc            0      0.00%     85.35% # Number of instructions issued per FU type, per thread (Count)
system.cpu.statIssuedInstType_0::SimdShift        34239      0.16%     85.51% # Number of instructions issued per FU type, per thread (Count)
system.cpu.statIssuedInstType_0::SimdShiftAcc            0      0.00%     85.51% # Number of instructions issued per FU type, per thread (Count)
system.cpu.statIssuedInstType_0::SimdDiv            0      0.00%     85.51% # Number of instructions issued per FU type, per thread (Count)
system.cpu.statIssuedInstType_0::SimdSqrt            0      0.00%     85.51% # Number of instructions issued per FU type, per thread (Count)
system.cpu.statIssuedInstType_0::SimdFloatAdd            1      0.00%     85.51% # Number of instructions issued per FU type, per thread (Count)
system.cpu.statIssuedInstType_0::SimdFloatAlu            0      0.00%     85.51% # Number of instructions issued per FU type, per thread (Count)
system.cpu.statIssuedInstType_0::SimdFloatCmp            0      0.00%     85.51% # Number of instructions issued per FU type, per thread (Count)
system.cpu.statIssuedInstType_0::SimdFloatCvt           53      0.00%     85.51% # Number of instructions issued per FU type, per thread (Count)
system.cpu.statIssuedInstType_0::SimdFloatDiv           17      0.00%     85.51% # Number of instructions issued per FU type, per thread (Count)
system.cpu.statIssuedInstType_0::SimdFloatMisc            0      0.00%     85.51% # Number of instructions issued per FU type, per thread (Count)
system.cpu.statIssuedInstType_0::SimdFloatMult            0      0.00%     85.51% # Number of instructions issued per FU type, per thread (Count)
system.cpu.statIssuedInstType_0::SimdFloatMultAcc            0      0.00%     85.51% # Number of instructions issued per FU type, per thread (Count)
system.cpu.statIssuedInstType_0::SimdFloatMatMultAcc            0      0.00%     85.51% # Number of instructions issued per FU type, per thread (Count)
system.cpu.statIssuedInstType_0::SimdFloatSqrt            0      0.00%     85.51% # Number of instructions issued per FU type, per thread (Count)
system.cpu.statIssuedInstType_0::SimdReduceAdd            0      0.00%     85.51% # Number of instructions issued per FU type, per thread (Count)
system.cpu.statIssuedInstType_0::SimdReduceAlu            0      0.00%     85.51% # Number of instructions issued per FU type, per thread (Count)
system.cpu.statIssuedInstType_0::SimdReduceCmp            0      0.00%     85.51% # Number of instructions issued per FU type, per thread (Count)
system.cpu.statIssuedInstType_0::SimdFloatReduceAdd            0      0.00%     85.51% # Number of instructions issued per FU type, per thread (Count)
system.cpu.statIssuedInstType_0::SimdFloatReduceCmp            0      0.00%     85.51% # Number of instructions issued per FU type, per thread (Count)
system.cpu.statIssuedInstType_0::SimdAes            0      0.00%     85.51% # Number of instructions issued per FU type, per thread (Count)
system.cpu.statIssuedInstType_0::SimdAesMix            0      0.00%     85.51% # Number of instructions issued per FU type, per thread (Count)
system.cpu.statIssuedInstType_0::SimdSha1Hash            0      0.00%     85.51% # Number of instructions issued per FU type, per thread (Count)
system.cpu.statIssuedInstType_0::SimdSha1Hash2            0      0.00%     85.51% # Number of instructions issued per FU type, per thread (Count)
system.cpu.statIssuedInstType_0::SimdSha256Hash            0      0.00%     85.51% # Number of instructions issued per FU type, per thread (Count)
system.cpu.statIssuedInstType_0::SimdSha256Hash2            0      0.00%     85.51% # Number of instructions issued per FU type, per thread (Count)
system.cpu.statIssuedInstType_0::SimdShaSigma2            0      0.00%     85.51% # Number of instructions issued per FU type, per thread (Count)
system.cpu.statIssuedInstType_0::SimdShaSigma3            0      0.00%     85.51% # Number of instructions issued per FU type, per thread (Count)
system.cpu.statIssuedInstType_0::SimdPredAlu            0      0.00%     85.51% # Number of instructions issued per FU type, per thread (Count)
system.cpu.statIssuedInstType_0::Matrix             0      0.00%     85.51% # Number of instructions issued per FU type, per thread (Count)
system.cpu.statIssuedInstType_0::MatrixMov            0      0.00%     85.51% # Number of instructions issued per FU type, per thread (Count)
system.cpu.statIssuedInstType_0::MatrixOP            0      0.00%     85.51% # Number of instructions issued per FU type, per thread (Count)
system.cpu.statIssuedInstType_0::MemRead      2231215     10.53%     96.03% # Number of instructions issued per FU type, per thread (Count)
system.cpu.statIssuedInstType_0::MemWrite       613682      2.90%     98.93% # Number of instructions issued per FU type, per thread (Count)
system.cpu.statIssuedInstType_0::FloatMemRead       161669      0.76%     99.69% # Number of instructions issued per FU type, per thread (Count)
system.cpu.statIssuedInstType_0::FloatMemWrite        65395      0.31%    100.00% # Number of instructions issued per FU type, per thread (Count)
system.cpu.statIssuedInstType_0::IprAccess            0      0.00%    100.00% # Number of instructions issued per FU type, per thread (Count)
system.cpu.statIssuedInstType_0::InstPrefetch            0      0.00%    100.00% # Number of instructions issued per FU type, per thread (Count)
system.cpu.statIssuedInstType_0::SimdUnitStrideLoad            0      0.00%    100.00% # Number of instructions issued per FU type, per thread (Count)
system.cpu.statIssuedInstType_0::SimdUnitStrideStore            0      0.00%    100.00% # Number of instructions issued per FU type, per thread (Count)
system.cpu.statIssuedInstType_0::SimdUnitStrideMaskLoad            0      0.00%    100.00% # Number of instructions issued per FU type, per thread (Count)
system.cpu.statIssuedInstType_0::SimdUnitStrideMaskStore            0      0.00%    100.00% # Number of instructions issued per FU type, per thread (Count)
system.cpu.statIssuedInstType_0::SimdStridedLoad            0      0.00%    100.00% # Number of instructions issued per FU type, per thread (Count)
system.cpu.statIssuedInstType_0::SimdStridedStore            0      0.00%    100.00% # Number of instructions issued per FU type, per thread (Count)
system.cpu.statIssuedInstType_0::SimdIndexedLoad            0      0.00%    100.00% # Number of instructions issued per FU type, per thread (Count)
system.cpu.statIssuedInstType_0::SimdIndexedStore            0      0.00%    100.00% # Number of instructions issued per FU type, per thread (Count)
system.cpu.statIssuedInstType_0::SimdWholeRegisterLoad            0      0.00%    100.00% # Number of instructions issued per FU type, per thread (Count)
system.cpu.statIssuedInstType_0::SimdWholeRegisterStore            0      0.00%    100.00% # Number of instructions issued per FU type, per thread (Count)
system.cpu.statIssuedInstType_0::SimdUnitStrideFaultOnlyFirstLoad            0      0.00%    100.00% # Number of instructions issued per FU type, per thread (Count)
system.cpu.statIssuedInstType_0::SimdUnitStrideSegmentedLoad            0      0.00%    100.00% # Number of instructions issued per FU type, per thread (Count)
system.cpu.statIssuedInstType_0::SimdUnitStrideSegmentedStore            0      0.00%    100.00% # Number of instructions issued per FU type, per thread (Count)
system.cpu.statIssuedInstType_0::SimdExt            0      0.00%    100.00% # Number of instructions issued per FU type, per thread (Count)
system.cpu.statIssuedInstType_0::SimdFloatExt            0      0.00%    100.00% # Number of instructions issued per FU type, per thread (Count)
system.cpu.statIssuedInstType_0::SimdConfig            0      0.00%    100.00% # Number of instructions issued per FU type, per thread (Count)
system.cpu.statIssuedInstType_0::total       21197119                       # Number of instructions issued per FU type, per thread (Count)
system.cpu.issueRate                         1.820866                       # Inst issue rate ((Count/Cycle))
system.cpu.fuBusy                                  75                       # FU busy when requested (Count)
system.cpu.fuBusyRate                        0.000004                       # FU busy rate (busy events/executed inst) ((Count/Count))
system.cpu.intInstQueueReads                 52219232                       # Number of integer instruction queue reads (Count)
system.cpu.intInstQueueWrites                29554205                       # Number of integer instruction queue writes (Count)
system.cpu.intInstQueueWakeupAccesses        19349387                       # Number of integer instruction queue wakeup accesses (Count)
system.cpu.fpInstQueueReads                   1663006                       # Number of floating instruction queue reads (Count)
system.cpu.fpInstQueueWrites                   879697                       # Number of floating instruction queue writes (Count)
system.cpu.fpInstQueueWakeupAccesses           822091                       # Number of floating instruction queue wakeup accesses (Count)
system.cpu.vecInstQueueReads                        0                       # Number of vector instruction queue reads (Count)
system.cpu.vecInstQueueWrites                       0                       # Number of vector instruction queue writes (Count)
system.cpu.vecInstQueueWakeupAccesses               0                       # Number of vector instruction queue wakeup accesses (Count)
system.cpu.intAluAccesses                    20250968                       # Number of integer alu accesses (Count)
system.cpu.fpAluAccesses                       831405                       # Number of floating point alu accesses (Count)
system.cpu.vecAluAccesses                           0                       # Number of vector alu accesses (Count)
system.cpu.numSquashedInsts                    865870                       # Number of squashed instructions skipped in execute (Count)
system.cpu.numSwp                                   0                       # Number of swp insts executed (Count)
system.cpu.timesIdled                            1391                       # Number of times that the entire CPU went into an idle state and unscheduled itself (Count)
system.cpu.idleCycles                          153538                       # Total number of cycles that the CPU has spent unscheduled due to idling (Cycle)
system.cpu.MemDepUnit__0.insertedLoads        2548021                       # Number of loads inserted to the mem dependence unit. (Count)
system.cpu.MemDepUnit__0.insertedStores        796420                       # Number of stores inserted to the mem dependence unit. (Count)
system.cpu.MemDepUnit__0.conflictingLoads       316420                       # Number of conflicting loads. (Count)
system.cpu.MemDepUnit__0.conflictingStores        99371                       # Number of conflicting stores. (Count)
system.cpu.MemDepUnit__0.falseDependencies          295                       # Number of times load's address didn't match predicted store's address (Count)
system.cpu.MemDepUnit__0.correctPredictions        12348                       # Number of times load's address did match predicted store's address (Count)
system.cpu.MemDepUnit__0.LFSTReads                  0                       # Number of LFST reads. (Count)
system.cpu.MemDepUnit__0.LFSTWrites                 0                       # Number of LFST writes. (Count)
system.cpu.MemDepUnit__0.readsPath1               677                       # Number of reads to path table 1. (Count)
system.cpu.MemDepUnit__0.readsPath2              6821                       # Number of reads to path table 2. (Count)
system.cpu.MemDepUnit__0.readsPath3               823                       # Number of reads to path table 3. (Count)
system.cpu.MemDepUnit__0.readsPath4              4470                       # Number of reads to path table 4. (Count)
system.cpu.MemDepUnit__0.readsPath5                 4                       # Number of reads to path table 5. (Count)
system.cpu.MemDepUnit__0.readsPath6                 0                       # Number of reads to path table 6. (Count)
system.cpu.MemDepUnit__0.readsPath7                 0                       # Number of reads to path table 7. (Count)
system.cpu.MemDepUnit__0.readsPath8                 0                       # Number of reads to path table 8. (Count)
system.cpu.MemDepUnit__0.writesPath1             4742                       # Number of writes to path table 1. (Count)
system.cpu.MemDepUnit__0.writesPath2            20837                       # Number of writes to path table 2. (Count)
system.cpu.MemDepUnit__0.writesPath3             2947                       # Number of writes to path table 3. (Count)
system.cpu.MemDepUnit__0.writesPath4            15390                       # Number of writes to path table 4. (Count)
system.cpu.MemDepUnit__0.writesPath5               28                       # Number of writes to path table 5. (Count)
system.cpu.MemDepUnit__0.writesPath6                0                       # Number of writes to path table 6. (Count)
system.cpu.MemDepUnit__0.writesPath7                0                       # Number of writes to path table 7. (Count)
system.cpu.MemDepUnit__0.writesPath8                0                       # Number of writes to path table 8. (Count)
system.cpu.MemDepUnit__1.insertedLoads              0                       # Number of loads inserted to the mem dependence unit. (Count)
system.cpu.MemDepUnit__1.insertedStores             0                       # Number of stores inserted to the mem dependence unit. (Count)
system.cpu.MemDepUnit__1.conflictingLoads            0                       # Number of conflicting loads. (Count)
system.cpu.MemDepUnit__1.conflictingStores            0                       # Number of conflicting stores. (Count)
system.cpu.MemDepUnit__1.falseDependencies            0                       # Number of times load's address didn't match predicted store's address (Count)
system.cpu.MemDepUnit__1.correctPredictions            0                       # Number of times load's address did match predicted store's address (Count)
system.cpu.MemDepUnit__1.LFSTReads                  0                       # Number of LFST reads. (Count)
system.cpu.MemDepUnit__1.LFSTWrites                 0                       # Number of LFST writes. (Count)
system.cpu.MemDepUnit__1.readsPath1                 0                       # Number of reads to path table 1. (Count)
system.cpu.MemDepUnit__1.readsPath2                 0                       # Number of reads to path table 2. (Count)
system.cpu.MemDepUnit__1.readsPath3                 0                       # Number of reads to path table 3. (Count)
system.cpu.MemDepUnit__1.readsPath4                 0                       # Number of reads to path table 4. (Count)
system.cpu.MemDepUnit__1.readsPath5                 0                       # Number of reads to path table 5. (Count)
system.cpu.MemDepUnit__1.readsPath6                 0                       # Number of reads to path table 6. (Count)
system.cpu.MemDepUnit__1.readsPath7                 0                       # Number of reads to path table 7. (Count)
system.cpu.MemDepUnit__1.readsPath8                 0                       # Number of reads to path table 8. (Count)
system.cpu.MemDepUnit__1.writesPath1                0                       # Number of writes to path table 1. (Count)
system.cpu.MemDepUnit__1.writesPath2                0                       # Number of writes to path table 2. (Count)
system.cpu.MemDepUnit__1.writesPath3                0                       # Number of writes to path table 3. (Count)
system.cpu.MemDepUnit__1.writesPath4                0                       # Number of writes to path table 4. (Count)
system.cpu.MemDepUnit__1.writesPath5                0                       # Number of writes to path table 5. (Count)
system.cpu.MemDepUnit__1.writesPath6                0                       # Number of writes to path table 6. (Count)
system.cpu.MemDepUnit__1.writesPath7                0                       # Number of writes to path table 7. (Count)
system.cpu.MemDepUnit__1.writesPath8                0                       # Number of writes to path table 8. (Count)
system.cpu.MemDepUnit__2.insertedLoads              0                       # Number of loads inserted to the mem dependence unit. (Count)
system.cpu.MemDepUnit__2.insertedStores             0                       # Number of stores inserted to the mem dependence unit. (Count)
system.cpu.MemDepUnit__2.conflictingLoads            0                       # Number of conflicting loads. (Count)
system.cpu.MemDepUnit__2.conflictingStores            0                       # Number of conflicting stores. (Count)
system.cpu.MemDepUnit__2.falseDependencies            0                       # Number of times load's address didn't match predicted store's address (Count)
system.cpu.MemDepUnit__2.correctPredictions            0                       # Number of times load's address did match predicted store's address (Count)
system.cpu.MemDepUnit__2.LFSTReads                  0                       # Number of LFST reads. (Count)
system.cpu.MemDepUnit__2.LFSTWrites                 0                       # Number of LFST writes. (Count)
system.cpu.MemDepUnit__2.readsPath1                 0                       # Number of reads to path table 1. (Count)
system.cpu.MemDepUnit__2.readsPath2                 0                       # Number of reads to path table 2. (Count)
system.cpu.MemDepUnit__2.readsPath3                 0                       # Number of reads to path table 3. (Count)
system.cpu.MemDepUnit__2.readsPath4                 0                       # Number of reads to path table 4. (Count)
system.cpu.MemDepUnit__2.readsPath5                 0                       # Number of reads to path table 5. (Count)
system.cpu.MemDepUnit__2.readsPath6                 0                       # Number of reads to path table 6. (Count)
system.cpu.MemDepUnit__2.readsPath7                 0                       # Number of reads to path table 7. (Count)
system.cpu.MemDepUnit__2.readsPath8                 0                       # Number of reads to path table 8. (Count)
system.cpu.MemDepUnit__2.writesPath1                0                       # Number of writes to path table 1. (Count)
system.cpu.MemDepUnit__2.writesPath2                0                       # Number of writes to path table 2. (Count)
system.cpu.MemDepUnit__2.writesPath3                0                       # Number of writes to path table 3. (Count)
system.cpu.MemDepUnit__2.writesPath4                0                       # Number of writes to path table 4. (Count)
system.cpu.MemDepUnit__2.writesPath5                0                       # Number of writes to path table 5. (Count)
system.cpu.MemDepUnit__2.writesPath6                0                       # Number of writes to path table 6. (Count)
system.cpu.MemDepUnit__2.writesPath7                0                       # Number of writes to path table 7. (Count)
system.cpu.MemDepUnit__2.writesPath8                0                       # Number of writes to path table 8. (Count)
system.cpu.MemDepUnit__3.insertedLoads              0                       # Number of loads inserted to the mem dependence unit. (Count)
system.cpu.MemDepUnit__3.insertedStores             0                       # Number of stores inserted to the mem dependence unit. (Count)
system.cpu.MemDepUnit__3.conflictingLoads            0                       # Number of conflicting loads. (Count)
system.cpu.MemDepUnit__3.conflictingStores            0                       # Number of conflicting stores. (Count)
system.cpu.MemDepUnit__3.falseDependencies            0                       # Number of times load's address didn't match predicted store's address (Count)
system.cpu.MemDepUnit__3.correctPredictions            0                       # Number of times load's address did match predicted store's address (Count)
system.cpu.MemDepUnit__3.LFSTReads                  0                       # Number of LFST reads. (Count)
system.cpu.MemDepUnit__3.LFSTWrites                 0                       # Number of LFST writes. (Count)
system.cpu.MemDepUnit__3.readsPath1                 0                       # Number of reads to path table 1. (Count)
system.cpu.MemDepUnit__3.readsPath2                 0                       # Number of reads to path table 2. (Count)
system.cpu.MemDepUnit__3.readsPath3                 0                       # Number of reads to path table 3. (Count)
system.cpu.MemDepUnit__3.readsPath4                 0                       # Number of reads to path table 4. (Count)
system.cpu.MemDepUnit__3.readsPath5                 0                       # Number of reads to path table 5. (Count)
system.cpu.MemDepUnit__3.readsPath6                 0                       # Number of reads to path table 6. (Count)
system.cpu.MemDepUnit__3.readsPath7                 0                       # Number of reads to path table 7. (Count)
system.cpu.MemDepUnit__3.readsPath8                 0                       # Number of reads to path table 8. (Count)
system.cpu.MemDepUnit__3.writesPath1                0                       # Number of writes to path table 1. (Count)
system.cpu.MemDepUnit__3.writesPath2                0                       # Number of writes to path table 2. (Count)
system.cpu.MemDepUnit__3.writesPath3                0                       # Number of writes to path table 3. (Count)
system.cpu.MemDepUnit__3.writesPath4                0                       # Number of writes to path table 4. (Count)
system.cpu.MemDepUnit__3.writesPath5                0                       # Number of writes to path table 5. (Count)
system.cpu.MemDepUnit__3.writesPath6                0                       # Number of writes to path table 6. (Count)
system.cpu.MemDepUnit__3.writesPath7                0                       # Number of writes to path table 7. (Count)
system.cpu.MemDepUnit__3.writesPath8                0                       # Number of writes to path table 8. (Count)
system.cpu.branchPred.lookups_0::NoBranch           14      0.00%      0.00% # Number of BP lookups (Count)
system.cpu.branchPred.lookups_0::Return         33052      0.78%      0.78% # Number of BP lookups (Count)
system.cpu.branchPred.lookups_0::CallDirect        34764      0.83%      1.61% # Number of BP lookups (Count)
system.cpu.branchPred.lookups_0::CallIndirect          409      0.01%      1.62% # Number of BP lookups (Count)
system.cpu.branchPred.lookups_0::DirectCond      3398855     80.68%     82.30% # Number of BP lookups (Count)
system.cpu.branchPred.lookups_0::DirectUncond       718638     17.06%     99.36% # Number of BP lookups (Count)
system.cpu.branchPred.lookups_0::IndirectCond            0      0.00%     99.36% # Number of BP lookups (Count)
system.cpu.branchPred.lookups_0::IndirectUncond        27080      0.64%    100.00% # Number of BP lookups (Count)
system.cpu.branchPred.lookups_0::total        4212812                       # Number of BP lookups (Count)
system.cpu.branchPred.squashes_0::NoBranch           14      0.00%      0.00% # Number of branches that got squashed (completely removed) as an earlier branch was mispredicted. (Count)
system.cpu.branchPred.squashes_0::Return         8478      0.38%      0.38% # Number of branches that got squashed (completely removed) as an earlier branch was mispredicted. (Count)
system.cpu.branchPred.squashes_0::CallDirect        10350      0.47%      0.85% # Number of branches that got squashed (completely removed) as an earlier branch was mispredicted. (Count)
system.cpu.branchPred.squashes_0::CallIndirect          244      0.01%      0.86% # Number of branches that got squashed (completely removed) as an earlier branch was mispredicted. (Count)
system.cpu.branchPred.squashes_0::DirectCond      1740095     78.72%     79.59% # Number of branches that got squashed (completely removed) as an earlier branch was mispredicted. (Count)
system.cpu.branchPred.squashes_0::DirectUncond       440759     19.94%     99.53% # Number of branches that got squashed (completely removed) as an earlier branch was mispredicted. (Count)
system.cpu.branchPred.squashes_0::IndirectCond            0      0.00%     99.53% # Number of branches that got squashed (completely removed) as an earlier branch was mispredicted. (Count)
system.cpu.branchPred.squashes_0::IndirectUncond        10452      0.47%    100.00% # Number of branches that got squashed (completely removed) as an earlier branch was mispredicted. (Count)
system.cpu.branchPred.squashes_0::total       2210392                       # Number of branches that got squashed (completely removed) as an earlier branch was mispredicted. (Count)
system.cpu.branchPred.corrected_0::NoBranch            2      0.00%      0.00% # Number of branches that got corrected but not yet commited. Branches get corrected by decode or after execute. Also a branch misprediction can be detected out-of-order. Therefore, a corrected branch might not end up beeing committed in case an even earlier branch was mispredicted (Count)
system.cpu.branchPred.corrected_0::Return           24      0.00%      0.00% # Number of branches that got corrected but not yet commited. Branches get corrected by decode or after execute. Also a branch misprediction can be detected out-of-order. Therefore, a corrected branch might not end up beeing committed in case an even earlier branch was mispredicted (Count)
system.cpu.branchPred.corrected_0::CallDirect          831      0.13%      0.13% # Number of branches that got corrected but not yet commited. Branches get corrected by decode or after execute. Also a branch misprediction can be detected out-of-order. Therefore, a corrected branch might not end up beeing committed in case an even earlier branch was mispredicted (Count)
system.cpu.branchPred.corrected_0::CallIndirect          121      0.02%      0.15% # Number of branches that got corrected but not yet commited. Branches get corrected by decode or after execute. Also a branch misprediction can be detected out-of-order. Therefore, a corrected branch might not end up beeing committed in case an even earlier branch was mispredicted (Count)
system.cpu.branchPred.corrected_0::DirectCond       439988     68.48%     68.63% # Number of branches that got corrected but not yet commited. Branches get corrected by decode or after execute. Also a branch misprediction can be detected out-of-order. Therefore, a corrected branch might not end up beeing committed in case an even earlier branch was mispredicted (Count)
system.cpu.branchPred.corrected_0::DirectUncond       200800     31.25%     99.88% # Number of branches that got corrected but not yet commited. Branches get corrected by decode or after execute. Also a branch misprediction can be detected out-of-order. Therefore, a corrected branch might not end up beeing committed in case an even earlier branch was mispredicted (Count)
system.cpu.branchPred.corrected_0::IndirectCond            0      0.00%     99.88% # Number of branches that got corrected but not yet commited. Branches get corrected by decode or after execute. Also a branch misprediction can be detected out-of-order. Therefore, a corrected branch might not end up beeing committed in case an even earlier branch was mispredicted (Count)
system.cpu.branchPred.corrected_0::IndirectUncond          782      0.12%    100.00% # Number of branches that got corrected but not yet commited. Branches get corrected by decode or after execute. Also a branch misprediction can be detected out-of-order. Therefore, a corrected branch might not end up beeing committed in case an even earlier branch was mispredicted (Count)
system.cpu.branchPred.corrected_0::total       642548                       # Number of branches that got corrected but not yet commited. Branches get corrected by decode or after execute. Also a branch misprediction can be detected out-of-order. Therefore, a corrected branch might not end up beeing committed in case an even earlier branch was mispredicted (Count)
system.cpu.branchPred.earlyResteers_0::NoBranch            0                       # Number of branches that got redirected after decode. (Count)
system.cpu.branchPred.earlyResteers_0::Return            0                       # Number of branches that got redirected after decode. (Count)
system.cpu.branchPred.earlyResteers_0::CallDirect            0                       # Number of branches that got redirected after decode. (Count)
system.cpu.branchPred.earlyResteers_0::CallIndirect            0                       # Number of branches that got redirected after decode. (Count)
system.cpu.branchPred.earlyResteers_0::DirectCond            0                       # Number of branches that got redirected after decode. (Count)
system.cpu.branchPred.earlyResteers_0::DirectUncond            0                       # Number of branches that got redirected after decode. (Count)
system.cpu.branchPred.earlyResteers_0::IndirectCond            0                       # Number of branches that got redirected after decode. (Count)
system.cpu.branchPred.earlyResteers_0::IndirectUncond            0                       # Number of branches that got redirected after decode. (Count)
system.cpu.branchPred.earlyResteers_0::total            0                       # Number of branches that got redirected after decode. (Count)
system.cpu.branchPred.committed_0::NoBranch            0      0.00%      0.00% # Number of branches finally committed  (Count)
system.cpu.branchPred.committed_0::Return        24574      1.23%      1.23% # Number of branches finally committed  (Count)
system.cpu.branchPred.committed_0::CallDirect        24414      1.22%      2.45% # Number of branches finally committed  (Count)
system.cpu.branchPred.committed_0::CallIndirect          165      0.01%      2.45% # Number of branches finally committed  (Count)
system.cpu.branchPred.committed_0::DirectCond      1658757     82.84%     85.29% # Number of branches finally committed  (Count)
system.cpu.branchPred.committed_0::DirectUncond       277879     13.88%     99.17% # Number of branches finally committed  (Count)
system.cpu.branchPred.committed_0::IndirectCond            0      0.00%     99.17% # Number of branches finally committed  (Count)
system.cpu.branchPred.committed_0::IndirectUncond        16628      0.83%    100.00% # Number of branches finally committed  (Count)
system.cpu.branchPred.committed_0::total      2002417                       # Number of branches finally committed  (Count)
system.cpu.branchPred.mispredicted_0::NoBranch            0      0.00%      0.00% # Number of committed branches that were mispredicted. (Count)
system.cpu.branchPred.mispredicted_0::Return            0      0.00%      0.00% # Number of committed branches that were mispredicted. (Count)
system.cpu.branchPred.mispredicted_0::CallDirect          521      0.13%      0.13% # Number of committed branches that were mispredicted. (Count)
system.cpu.branchPred.mispredicted_0::CallIndirect          116      0.03%      0.15% # Number of committed branches that were mispredicted. (Count)
system.cpu.branchPred.mispredicted_0::DirectCond       342064     82.47%     82.63% # Number of committed branches that were mispredicted. (Count)
system.cpu.branchPred.mispredicted_0::DirectUncond        71309     17.19%     99.82% # Number of committed branches that were mispredicted. (Count)
system.cpu.branchPred.mispredicted_0::IndirectCond            0      0.00%     99.82% # Number of committed branches that were mispredicted. (Count)
system.cpu.branchPred.mispredicted_0::IndirectUncond          749      0.18%    100.00% # Number of committed branches that were mispredicted. (Count)
system.cpu.branchPred.mispredicted_0::total       414759                       # Number of committed branches that were mispredicted. (Count)
system.cpu.branchPred.targetProvider_0::NoTarget      1465504     34.79%     34.79% # The component providing the target for taken branches (Count)
system.cpu.branchPred.targetProvider_0::BTB      2694570     63.96%     98.75% # The component providing the target for taken branches (Count)
system.cpu.branchPred.targetProvider_0::RAS        33051      0.78%     99.53% # The component providing the target for taken branches (Count)
system.cpu.branchPred.targetProvider_0::Indirect        19687      0.47%    100.00% # The component providing the target for taken branches (Count)
system.cpu.branchPred.targetProvider_0::total      4212812                       # The component providing the target for taken branches (Count)
system.cpu.branchPred.targetWrong_0::NoBranch       135576     21.68%     21.68% # Number of branches where the target was incorrect or not available at prediction time. (Count)
system.cpu.branchPred.targetWrong_0::Return       489100     78.22%     99.91% # Number of branches where the target was incorrect or not available at prediction time. (Count)
system.cpu.branchPred.targetWrong_0::CallDirect           24      0.00%     99.91% # Number of branches where the target was incorrect or not available at prediction time. (Count)
system.cpu.branchPred.targetWrong_0::CallIndirect          556      0.09%    100.00% # Number of branches where the target was incorrect or not available at prediction time. (Count)
system.cpu.branchPred.targetWrong_0::DirectCond            0      0.00%    100.00% # Number of branches where the target was incorrect or not available at prediction time. (Count)
system.cpu.branchPred.targetWrong_0::DirectUncond            0      0.00%    100.00% # Number of branches where the target was incorrect or not available at prediction time. (Count)
system.cpu.branchPred.targetWrong_0::IndirectCond            0      0.00%    100.00% # Number of branches where the target was incorrect or not available at prediction time. (Count)
system.cpu.branchPred.targetWrong_0::IndirectUncond            0      0.00%    100.00% # Number of branches where the target was incorrect or not available at prediction time. (Count)
system.cpu.branchPred.targetWrong_0::total       625256                       # Number of branches where the target was incorrect or not available at prediction time. (Count)
system.cpu.branchPred.condPredicted           3398869                       # Number of conditional branches predicted (Count)
system.cpu.branchPred.condPredictedTaken      1946818                       # Number of conditional branches predicted as taken (Count)
system.cpu.branchPred.condIncorrect            642548                       # Number of conditional branches incorrect (Count)
system.cpu.branchPred.predTakenBTBMiss           1637                       # Number of branches predicted taken but missed in BTB (Count)
system.cpu.branchPred.NotTakenMispredicted       496541                       # Number branches predicted 'not taken' but turned out to be taken (Count)
system.cpu.branchPred.TakenMispredicted        146007                       # Number branches predicted taken but are actually not taken (Count)
system.cpu.branchPred.BTBLookups              4212812                       # Number of BTB lookups (Count)
system.cpu.branchPred.BTBUpdates               495612                       # Number of BTB updates (Count)
system.cpu.branchPred.BTBHits                 3725910                       # Number of BTB hits (Count)
system.cpu.branchPred.BTBHitRatio            0.884424                       # BTB Hit Ratio (Ratio)
system.cpu.branchPred.BTBMispredicted            2287                       # Number BTB mispredictions. No target found or target wrong (Count)
system.cpu.branchPred.indirectLookups           27489                       # Number of indirect predictor lookups. (Count)
system.cpu.branchPred.indirectHits              19687                       # Number of indirect target hits. (Count)
system.cpu.branchPred.indirectMisses             7802                       # Number of indirect misses. (Count)
system.cpu.branchPred.indirectMispredicted            0                       # Number of mispredicted indirect branches. (Count)
system.cpu.branchPred.BTB.lookups::NoBranch            0                       # Number of BTB lookups (Count)
system.cpu.branchPred.BTB.lookups::Return            0                       # Number of BTB lookups (Count)
system.cpu.branchPred.BTB.lookups::CallDirect            0                       # Number of BTB lookups (Count)
system.cpu.branchPred.BTB.lookups::CallIndirect            0                       # Number of BTB lookups (Count)
system.cpu.branchPred.BTB.lookups::DirectCond            0                       # Number of BTB lookups (Count)
system.cpu.branchPred.BTB.lookups::DirectUncond            0                       # Number of BTB lookups (Count)
system.cpu.branchPred.BTB.lookups::IndirectCond            0                       # Number of BTB lookups (Count)
system.cpu.branchPred.BTB.lookups::IndirectUncond            0                       # Number of BTB lookups (Count)
system.cpu.branchPred.BTB.lookups::total            0                       # Number of BTB lookups (Count)
system.cpu.branchPred.BTB.misses::NoBranch            0                       # Number of BTB misses (Count)
system.cpu.branchPred.BTB.misses::Return            0                       # Number of BTB misses (Count)
system.cpu.branchPred.BTB.misses::CallDirect            0                       # Number of BTB misses (Count)
system.cpu.branchPred.BTB.misses::CallIndirect            0                       # Number of BTB misses (Count)
system.cpu.branchPred.BTB.misses::DirectCond            0                       # Number of BTB misses (Count)
system.cpu.branchPred.BTB.misses::DirectUncond            0                       # Number of BTB misses (Count)
system.cpu.branchPred.BTB.misses::IndirectCond            0                       # Number of BTB misses (Count)
system.cpu.branchPred.BTB.misses::IndirectUncond            0                       # Number of BTB misses (Count)
system.cpu.branchPred.BTB.misses::total             0                       # Number of BTB misses (Count)
system.cpu.branchPred.BTB.updates::NoBranch            0                       # Number of BTB updates (Count)
system.cpu.branchPred.BTB.updates::Return            0                       # Number of BTB updates (Count)
system.cpu.branchPred.BTB.updates::CallDirect            0                       # Number of BTB updates (Count)
system.cpu.branchPred.BTB.updates::CallIndirect            0                       # Number of BTB updates (Count)
system.cpu.branchPred.BTB.updates::DirectCond            0                       # Number of BTB updates (Count)
system.cpu.branchPred.BTB.updates::DirectUncond            0                       # Number of BTB updates (Count)
system.cpu.branchPred.BTB.updates::IndirectCond            0                       # Number of BTB updates (Count)
system.cpu.branchPred.BTB.updates::IndirectUncond            0                       # Number of BTB updates (Count)
system.cpu.branchPred.BTB.updates::total            0                       # Number of BTB updates (Count)
system.cpu.branchPred.BTB.mispredict::NoBranch            0                       # Number of BTB mispredictions. No target found or target wrong. (Count)
system.cpu.branchPred.BTB.mispredict::Return            0                       # Number of BTB mispredictions. No target found or target wrong. (Count)
system.cpu.branchPred.BTB.mispredict::CallDirect            0                       # Number of BTB mispredictions. No target found or target wrong. (Count)
system.cpu.branchPred.BTB.mispredict::CallIndirect            0                       # Number of BTB mispredictions. No target found or target wrong. (Count)
system.cpu.branchPred.BTB.mispredict::DirectCond            0                       # Number of BTB mispredictions. No target found or target wrong. (Count)
system.cpu.branchPred.BTB.mispredict::DirectUncond            0                       # Number of BTB mispredictions. No target found or target wrong. (Count)
system.cpu.branchPred.BTB.mispredict::IndirectCond            0                       # Number of BTB mispredictions. No target found or target wrong. (Count)
system.cpu.branchPred.BTB.mispredict::IndirectUncond            0                       # Number of BTB mispredictions. No target found or target wrong. (Count)
system.cpu.branchPred.BTB.mispredict::total            0                       # Number of BTB mispredictions. No target found or target wrong. (Count)
system.cpu.branchPred.BTB.conflict                  0                       # Number of conflicts. Tag hit but PC different. (Ratio)
system.cpu.branchPred.BTB.replace_map_0              0                                   0                                   0                                   0                                   0                                   0                                   0                                   0                       # Distribution of replaces (Count)
system.cpu.branchPred.BTB.replace_map_1              0                                   0                                   0                                   0                                   0                                   0                                   0                                   0                       # Distribution of replaces (Count)
system.cpu.branchPred.BTB.replace_map_2              0                                   0                                   0                                   0                                   0                                   0                                   0                                   0                       # Distribution of replaces (Count)
system.cpu.branchPred.BTB.replace_map_3              0                                   0                                   0                                   0                                   0                                   0                                   0                                   0                       # Distribution of replaces (Count)
system.cpu.branchPred.BTB.replace_map_4              0                                   0                                   0                                   0                                   0                                   0                                   0                                   0                       # Distribution of replaces (Count)
system.cpu.branchPred.BTB.replace_map_5              0                                   0                                   0                                   0                                   0                                   0                                   0                                   0                       # Distribution of replaces (Count)
system.cpu.branchPred.BTB.replace_map_6              0                                   0                                   0                                   0                                   0                                   0                                   0                                   0                       # Distribution of replaces (Count)
system.cpu.branchPred.BTB.replace_map_7              0                                   0                                   0                                   0                                   0                                   0                                   0                                   0                       # Distribution of replaces (Count)
system.cpu.branchPred.BTB.replace_map_8              0                                   0                                   0                                   0                                   0                                   0                                   0                                   0                       # Distribution of replaces (Count)
system.cpu.branchPred.BTB.replace_map_9              0                                   0                                   0                                   0                                   0                                   0                                   0                                   0                       # Distribution of replaces (Count)
system.cpu.branchPred.BTB.replace_map_10             0                                   0                                   0                                   0                                   0                                   0                                   0                                   0                       # Distribution of replaces (Count)
system.cpu.branchPred.BTB.replace_map_11             0                                   0                                   0                                   0                                   0                                   0                                   0                                   0                       # Distribution of replaces (Count)
system.cpu.branchPred.BTB.replace_map_12             0                                   0                                   0                                   0                                   0                                   0                                   0                                   0                       # Distribution of replaces (Count)
system.cpu.branchPred.BTB.replace_map_13             0                                   0                                   0                                   0                                   0                                   0                                   0                                   0                       # Distribution of replaces (Count)
system.cpu.branchPred.BTB.replace_map_14             0                                   0                                   0                                   0                                   0                                   0                                   0                                   0                       # Distribution of replaces (Count)
system.cpu.branchPred.BTB.replace_map_15             0                                   0                                   0                                   0                                   0                                   0                                   0                                   0                       # Distribution of replaces (Count)
system.cpu.branchPred.BTB.replace_map_16             0                                   0                                   0                                   0                                   0                                   0                                   0                                   0                       # Distribution of replaces (Count)
system.cpu.branchPred.BTB.replace_map_17             0                                   0                                   0                                   0                                   0                                   0                                   0                                   0                       # Distribution of replaces (Count)
system.cpu.branchPred.BTB.replace_map_18             0                                   0                                   0                                   0                                   0                                   0                                   0                                   0                       # Distribution of replaces (Count)
system.cpu.branchPred.BTB.replace_map_19             0                                   0                                   0                                   0                                   0                                   0                                   0                                   0                       # Distribution of replaces (Count)
system.cpu.branchPred.BTB.replace_map_20             0                                   0                                   0                                   0                                   0                                   0                                   0                                   0                       # Distribution of replaces (Count)
system.cpu.branchPred.BTB.replace_map_21             0                                   0                                   0                                   0                                   0                                   0                                   0                                   0                       # Distribution of replaces (Count)
system.cpu.branchPred.BTB.replace_map_22             0                                   0                                   0                                   0                                   0                                   0                                   0                                   0                       # Distribution of replaces (Count)
system.cpu.branchPred.BTB.replace_map_23             0                                   0                                   0                                   0                                   0                                   0                                   0                                   0                       # Distribution of replaces (Count)
system.cpu.branchPred.BTB.replace_map_24             0                                   0                                   0                                   0                                   0                                   0                                   0                                   0                       # Distribution of replaces (Count)
system.cpu.branchPred.BTB.replace_map_25             0                                   0                                   0                                   0                                   0                                   0                                   0                                   0                       # Distribution of replaces (Count)
system.cpu.branchPred.BTB.replace_map_26             0                                   0                                   0                                   0                                   0                                   0                                   0                                   0                       # Distribution of replaces (Count)
system.cpu.branchPred.BTB.replace_map_27             0                                   0                                   0                                   0                                   0                                   0                                   0                                   0                       # Distribution of replaces (Count)
system.cpu.branchPred.BTB.replace_map_28             0                                   0                                   0                                   0                                   0                                   0                                   0                                   0                       # Distribution of replaces (Count)
system.cpu.branchPred.BTB.replace_map_29             0                                   0                                   0                                   0                                   0                                   0                                   0                                   0                       # Distribution of replaces (Count)
system.cpu.branchPred.BTB.replace_map_30             0                                   0                                   0                                   0                                   0                                   0                                   0                                   0                       # Distribution of replaces (Count)
system.cpu.branchPred.BTB.replace_map_31             0                                   0                                   0                                   0                                   0                                   0                                   0                                   0                       # Distribution of replaces (Count)
system.cpu.branchPred.BTB.replace_map_32             0                                   0                                   0                                   0                                   0                                   0                                   0                                   0                       # Distribution of replaces (Count)
system.cpu.branchPred.BTB.replace_map_33             0                                   0                                   0                                   0                                   0                                   0                                   0                                   0                       # Distribution of replaces (Count)
system.cpu.branchPred.BTB.replace_map_34             0                                   0                                   0                                   0                                   0                                   0                                   0                                   0                       # Distribution of replaces (Count)
system.cpu.branchPred.BTB.replace_map_35             0                                   0                                   0                                   0                                   0                                   0                                   0                                   0                       # Distribution of replaces (Count)
system.cpu.branchPred.BTB.replace_map_36             0                                   0                                   0                                   0                                   0                                   0                                   0                                   0                       # Distribution of replaces (Count)
system.cpu.branchPred.BTB.replace_map_37             0                                   0                                   0                                   0                                   0                                   0                                   0                                   0                       # Distribution of replaces (Count)
system.cpu.branchPred.BTB.replace_map_38             0                                   0                                   0                                   0                                   0                                   0                                   0                                   0                       # Distribution of replaces (Count)
system.cpu.branchPred.BTB.replace_map_39             0                                   0                                   0                                   0                                   0                                   0                                   0                                   0                       # Distribution of replaces (Count)
system.cpu.branchPred.BTB.replace_map_40             0                                   0                                   0                                   0                                   0                                   0                                   0                                   0                       # Distribution of replaces (Count)
system.cpu.branchPred.BTB.replace_map_41             0                                   0                                   0                                   0                                   0                                   0                                   0                                   0                       # Distribution of replaces (Count)
system.cpu.branchPred.BTB.replace_map_42             0                                   0                                   0                                   0                                   0                                   0                                   0                                   0                       # Distribution of replaces (Count)
system.cpu.branchPred.BTB.replace_map_43             0                                   0                                   0                                   0                                   0                                   0                                   0                                   0                       # Distribution of replaces (Count)
system.cpu.branchPred.BTB.replace_map_44             0                                   0                                   0                                   0                                   0                                   0                                   0                                   0                       # Distribution of replaces (Count)
system.cpu.branchPred.BTB.replace_map_45             0                                   0                                   0                                   0                                   0                                   0                                   0                                   0                       # Distribution of replaces (Count)
system.cpu.branchPred.BTB.replace_map_46             0                                   0                                   0                                   0                                   0                                   0                                   0                                   0                       # Distribution of replaces (Count)
system.cpu.branchPred.BTB.replace_map_47             0                                   0                                   0                                   0                                   0                                   0                                   0                                   0                       # Distribution of replaces (Count)
system.cpu.branchPred.BTB.replace_map_48             0                                   0                                   0                                   0                                   0                                   0                                   0                                   0                       # Distribution of replaces (Count)
system.cpu.branchPred.BTB.replace_map_49             0                                   0                                   0                                   0                                   0                                   0                                   0                                   0                       # Distribution of replaces (Count)
system.cpu.branchPred.BTB.replace_map_50             0                                   0                                   0                                   0                                   0                                   0                                   0                                   0                       # Distribution of replaces (Count)
system.cpu.branchPred.BTB.replace_map_51             0                                   0                                   0                                   0                                   0                                   0                                   0                                   0                       # Distribution of replaces (Count)
system.cpu.branchPred.BTB.replace_map_52             0                                   0                                   0                                   0                                   0                                   0                                   0                                   0                       # Distribution of replaces (Count)
system.cpu.branchPred.BTB.replace_map_53             0                                   0                                   0                                   0                                   0                                   0                                   0                                   0                       # Distribution of replaces (Count)
system.cpu.branchPred.BTB.replace_map_54             0                                   0                                   0                                   0                                   0                                   0                                   0                                   0                       # Distribution of replaces (Count)
[...]
system.mem_ctrls.dram.perBankWrBursts::12            0                       # Per bank write bursts (Count)
system.mem_ctrls.dram.perBankWrBursts::13            0                       # Per bank write bursts (Count)
system.mem_ctrls.dram.perBankWrBursts::14            0                       # Per bank write bursts (Count)
system.mem_ctrls.dram.perBankWrBursts::15            0                       # Per bank write bursts (Count)
system.mem_ctrls.dram.totQLat                81235750                       # Total ticks spent queuing (Tick)
system.mem_ctrls.dram.totBusLat              63060000                       # Total ticks spent in databus transfers (Tick)
system.mem_ctrls.dram.totMemAccLat          317710750                       # Total ticks spent from burst creation until serviced by the DRAM (Tick)
system.mem_ctrls.dram.avgQLat                 6441.15                       # Average queueing delay per DRAM burst ((Tick/Count))
system.mem_ctrls.dram.avgBusLat               5000.00                       # Average bus latency per DRAM burst ((Tick/Count))
system.mem_ctrls.dram.avgMemAccLat           25191.15                       # Average memory access latency per DRAM burst ((Tick/Count))
system.mem_ctrls.dram.readRowHits               10460                       # Number of row buffer hits during reads (Count)
system.mem_ctrls.dram.writeRowHits                  0                       # Number of row buffer hits during writes (Count)
system.mem_ctrls.dram.readRowHitRate            82.94                       # Row buffer hit rate for reads (Ratio)
system.mem_ctrls.dram.writeRowHitRate             nan                       # Row buffer hit rate for writes (Ratio)
system.mem_ctrls.dram.bytesPerActivate::samples         2140                       # Bytes accessed per row activation (Byte)
system.mem_ctrls.dram.bytesPerActivate::mean   376.343925                       # Bytes accessed per row activation (Byte)
system.mem_ctrls.dram.bytesPerActivate::gmean   219.822371                       # Bytes accessed per row activation (Byte)
system.mem_ctrls.dram.bytesPerActivate::stdev   371.054020                       # Bytes accessed per row activation (Byte)
system.mem_ctrls.dram.bytesPerActivate::0-127          645     30.14%     30.14% # Bytes accessed per row activation (Byte)
system.mem_ctrls.dram.bytesPerActivate::128-255          549     25.65%     55.79% # Bytes accessed per row activation (Byte)
system.mem_ctrls.dram.bytesPerActivate::256-383          206      9.63%     65.42% # Bytes accessed per row activation (Byte)
system.mem_ctrls.dram.bytesPerActivate::384-511          105      4.91%     70.33% # Bytes accessed per row activation (Byte)
system.mem_ctrls.dram.bytesPerActivate::512-639           80      3.74%     74.07% # Bytes accessed per row activation (Byte)
system.mem_ctrls.dram.bytesPerActivate::640-767           62      2.90%     76.96% # Bytes accessed per row activation (Byte)
system.mem_ctrls.dram.bytesPerActivate::768-895           35      1.64%     78.60% # Bytes accessed per row activation (Byte)
system.mem_ctrls.dram.bytesPerActivate::896-1023           33      1.54%     80.14% # Bytes accessed per row activation (Byte)
system.mem_ctrls.dram.bytesPerActivate::1024-1151          425     19.86%    100.00% # Bytes accessed per row activation (Byte)
system.mem_ctrls.dram.bytesPerActivate::total         2140                       # Bytes accessed per row activation (Byte)
system.mem_ctrls.dram.dramBytesRead            807168                       # Total bytes read (Byte)
system.mem_ctrls.dram.dramBytesWritten              0                       # Total bytes written (Byte)
system.mem_ctrls.dram.avgRdBW              138.674030                       # Average DRAM read bandwidth in MiBytes/s ((Byte/Second))
system.mem_ctrls.dram.avgWrBW                       0                       # Average DRAM write bandwidth in MiBytes/s ((Byte/Second))
system.mem_ctrls.dram.peakBW                 12800.00                       # Theoretical peak bandwidth in MiByte/s ((Byte/Second))
system.mem_ctrls.dram.busUtil                    1.08                       # Data bus utilization in percentage (Ratio)
system.mem_ctrls.dram.busUtilRead                1.08                       # Data bus utilization in percentage for reads (Ratio)
system.mem_ctrls.dram.busUtilWrite               0.00                       # Data bus utilization in percentage for writes (Ratio)
system.mem_ctrls.dram.pageHitRate               82.94                       # Row buffer hit rate, read and write combined (Ratio)
system.mem_ctrls.dram.power_state.pwrStateResidencyTicks::UNDEFINED   5820614000                       # Cumulative time (in ticks) in various power states (Tick)
system.mem_ctrls.dram.rank0.actEnergy         7725480                       # Energy for activate commands per rank (pJ) (Joule)
system.mem_ctrls.dram.rank0.preEnergy         4079625                       # Energy for precharge commands per rank (pJ) (Joule)
system.mem_ctrls.dram.rank0.readEnergy       46367160                       # Energy for read commands per rank (pJ) (Joule)
system.mem_ctrls.dram.rank0.writeEnergy             0                       # Energy for write commands per rank (pJ) (Joule)
system.mem_ctrls.dram.rank0.refreshEnergy 459136080.000000                       # Energy for refresh commands per rank (pJ) (Joule)
system.mem_ctrls.dram.rank0.actBackEnergy    666914820                       # Energy for active background per rank (pJ) (Joule)
system.mem_ctrls.dram.rank0.preBackEnergy   1673503680                       # Energy for precharge background per rank (pJ) (Joule)
system.mem_ctrls.dram.rank0.actPowerDownEnergy            0                       # Energy for active power-down per rank (pJ) (Joule)
system.mem_ctrls.dram.rank0.prePowerDownEnergy            0                       # Energy for precharge power-down per rank (pJ) (Joule)
system.mem_ctrls.dram.rank0.selfRefreshEnergy            0                       # Energy for self refresh per rank (pJ) (Joule)
system.mem_ctrls.dram.rank0.totalEnergy    2857726845                       # Total energy per rank (pJ) (Joule)
system.mem_ctrls.dram.rank0.averagePower   490.966562                       # Core power per rank (mW) (Watt)
system.mem_ctrls.dram.rank0.totalIdleTime            0                       # Total Idle time Per DRAM Rank (Tick)
system.mem_ctrls.dram.rank0.pwrStateTime::IDLE   4343113250                       # Time in different power states (Tick)
system.mem_ctrls.dram.rank0.pwrStateTime::REF    194220000                       # Time in different power states (Tick)
system.mem_ctrls.dram.rank0.pwrStateTime::SREF            0                       # Time in different power states (Tick)
system.mem_ctrls.dram.rank0.pwrStateTime::PRE_PDN            0                       # Time in different power states (Tick)
system.mem_ctrls.dram.rank0.pwrStateTime::ACT   1283280750                       # Time in different power states (Tick)
system.mem_ctrls.dram.rank0.pwrStateTime::ACT_PDN            0                       # Time in different power states (Tick)
system.mem_ctrls.dram.rank1.actEnergy         7639800                       # Energy for activate commands per rank (pJ) (Joule)
system.mem_ctrls.dram.rank1.preEnergy         4041675                       # Energy for precharge commands per rank (pJ) (Joule)
system.mem_ctrls.dram.rank1.readEnergy       43682520                       # Energy for read commands per rank (pJ) (Joule)
system.mem_ctrls.dram.rank1.writeEnergy             0                       # Energy for write commands per rank (pJ) (Joule)
system.mem_ctrls.dram.rank1.refreshEnergy 459136080.000000                       # Energy for refresh commands per rank (pJ) (Joule)
system.mem_ctrls.dram.rank1.actBackEnergy    650077590                       # Energy for active background per rank (pJ) (Joule)
system.mem_ctrls.dram.rank1.preBackEnergy   1687682400                       # Energy for precharge background per rank (pJ) (Joule)
system.mem_ctrls.dram.rank1.actPowerDownEnergy            0                       # Energy for active power-down per rank (pJ) (Joule)
system.mem_ctrls.dram.rank1.prePowerDownEnergy            0                       # Energy for precharge power-down per rank (pJ) (Joule)
system.mem_ctrls.dram.rank1.selfRefreshEnergy            0                       # Energy for self refresh per rank (pJ) (Joule)
system.mem_ctrls.dram.rank1.totalEnergy    2852260065                       # Total energy per rank (pJ) (Joule)
system.mem_ctrls.dram.rank1.averagePower   490.027352                       # Core power per rank (mW) (Watt)
system.mem_ctrls.dram.rank1.totalIdleTime            0                       # Total Idle time Per DRAM Rank (Tick)
system.mem_ctrls.dram.rank1.pwrStateTime::IDLE   4380242250                       # Time in different power states (Tick)
system.mem_ctrls.dram.rank1.pwrStateTime::REF    194220000                       # Time in different power states (Tick)
system.mem_ctrls.dram.rank1.pwrStateTime::SREF            0                       # Time in different power states (Tick)
system.mem_ctrls.dram.rank1.pwrStateTime::PRE_PDN            0                       # Time in different power states (Tick)
system.mem_ctrls.dram.rank1.pwrStateTime::ACT   1246151750                       # Time in different power states (Tick)
system.mem_ctrls.dram.rank1.pwrStateTime::ACT_PDN            0                       # Time in different power states (Tick)
system.mem_ctrls.power_state.pwrStateResidencyTicks::UNDEFINED   5820614000                       # Cumulative time (in ticks) in various power states (Tick)
system.membus.transDist::ReadResp                5588                       # Transaction distribution (Count)
system.membus.transDist::ReadExReq               7024                       # Transaction distribution (Count)
system.membus.transDist::ReadExResp              7024                       # Transaction distribution (Count)
system.membus.transDist::ReadSharedReq           5588                       # Transaction distribution (Count)
system.membus.pktCount_system.l2.mem_side_port::system.mem_ctrls.port        25224                       # Packet count per connected requestor and responder (Count)
system.membus.pktCount_system.l2.mem_side_port::total        25224                       # Packet count per connected requestor and responder (Count)
system.membus.pktCount::total                   25224                       # Packet count per connected requestor and responder (Count)
system.membus.pktSize_system.l2.mem_side_port::system.mem_ctrls.port       807168                       # Cumulative packet size per connected requestor and responder (Byte)
system.membus.pktSize_system.l2.mem_side_port::total       807168                       # Cumulative packet size per connected requestor and responder (Byte)
system.membus.pktSize::total                   807168                       # Cumulative packet size per connected requestor and responder (Byte)
system.membus.snoops                                0                       # Total snoops (Count)
system.membus.snoopTraffic                          0                       # Total snoop traffic (Byte)
system.membus.snoopFanout::samples              12612                       # Request fanout histogram (Count)
system.membus.snoopFanout::mean                     0                       # Request fanout histogram (Count)
system.membus.snoopFanout::stdev                    0                       # Request fanout histogram (Count)
system.membus.snoopFanout::underflows               0      0.00%      0.00% # Request fanout histogram (Count)
system.membus.snoopFanout::0                    12612    100.00%    100.00% # Request fanout histogram (Count)
system.membus.snoopFanout::1                        0      0.00%    100.00% # Request fanout histogram (Count)
system.membus.snoopFanout::overflows                0      0.00%    100.00% # Request fanout histogram (Count)
system.membus.snoopFanout::min_value                0                       # Request fanout histogram (Count)
system.membus.snoopFanout::max_value                0                       # Request fanout histogram (Count)
system.membus.snoopFanout::total                12612                       # Request fanout histogram (Count)
system.membus.power_state.pwrStateResidencyTicks::UNDEFINED   5820614000                       # Cumulative time (in ticks) in various power states (Tick)
system.membus.reqLayer2.occupancy            15611000                       # Layer occupancy (ticks) (Tick)
system.membus.reqLayer2.utilization               0.0                       # Layer utilization (Ratio)
system.membus.respLayer1.occupancy           66775500                       # Layer occupancy (ticks) (Tick)
system.membus.respLayer1.utilization              0.0                       # Layer utilization (Ratio)
system.membus.snoop_filter.totRequests          12612                       # Total number of requests made to the snoop filter. (Count)
system.membus.snoop_filter.hitSingleRequests            0                       # Number of requests hitting in the snoop filter with a single holder of the requested data. (Count)
system.membus.snoop_filter.hitMultiRequests            0                       # Number of requests hitting in the snoop filter with multiple (>1) holders of the requested data. (Count)
system.membus.snoop_filter.totSnoops                0                       # Total number of snoops made to the snoop filter. (Count)
system.membus.snoop_filter.hitSingleSnoops            0                       # Number of snoops hitting in the snoop filter with a single holder of the requested data. (Count)
system.membus.snoop_filter.hitMultiSnoops            0                       # Number of snoops hitting in the snoop filter with multiple (>1) holders of the requested data. (Count)
system.tol2bus.transDist::ReadResp              14053                       # Transaction distribution (Count)
system.tol2bus.transDist::WritebackDirty        16726                       # Transaction distribution (Count)
system.tol2bus.transDist::WritebackClean          771                       # Transaction distribution (Count)
system.tol2bus.transDist::CleanEvict             3419                       # Transaction distribution (Count)
system.tol2bus.transDist::UpgradeReq               15                       # Transaction distribution (Count)
system.tol2bus.transDist::UpgradeResp              15                       # Transaction distribution (Count)
system.tol2bus.transDist::ReadExReq             10527                       # Transaction distribution (Count)
system.tol2bus.transDist::ReadExResp            10527                       # Transaction distribution (Count)
system.tol2bus.transDist::ReadCleanReq           2387                       # Transaction distribution (Count)
system.tol2bus.transDist::ReadSharedReq         11666                       # Transaction distribution (Count)
system.tol2bus.pktCount_system.cpu.icache.mem_side_port::system.l2.cpu_side_port         5524                       # Packet count per connected requestor and responder (Count)
system.tol2bus.pktCount_system.cpu.dcache.mem_side_port::system.l2.cpu_side_port        64561                       # Packet count per connected requestor and responder (Count)
system.tol2bus.pktCount::total                  70085                       # Packet count per connected requestor and responder (Count)
system.tol2bus.pktSize_system.cpu.icache.mem_side_port::system.l2.cpu_side_port       200768                       # Cumulative packet size per connected requestor and responder (Byte)
system.tol2bus.pktSize_system.cpu.dcache.mem_side_port::system.l2.cpu_side_port      2490816                       # Cumulative packet size per connected requestor and responder (Byte)
system.tol2bus.pktSize::total                 2691584                       # Cumulative packet size per connected requestor and responder (Byte)
system.tol2bus.snoops                              21                       # Total snoops (Count)
system.tol2bus.snoopTraffic                      1344                       # Total snoop traffic (Byte)
system.tol2bus.snoopFanout::samples             24595                       # Request fanout histogram (Count)
system.tol2bus.snoopFanout::mean             0.002887                       # Request fanout histogram (Count)
system.tol2bus.snoopFanout::stdev            0.053652                       # Request fanout histogram (Count)
system.tol2bus.snoopFanout::underflows              0      0.00%      0.00% # Request fanout histogram (Count)
system.tol2bus.snoopFanout::0                   24524     99.71%     99.71% # Request fanout histogram (Count)
system.tol2bus.snoopFanout::1                      71      0.29%    100.00% # Request fanout histogram (Count)
system.tol2bus.snoopFanout::2                       0      0.00%    100.00% # Request fanout histogram (Count)
system.tol2bus.snoopFanout::3                       0      0.00%    100.00% # Request fanout histogram (Count)
system.tol2bus.snoopFanout::4                       0      0.00%    100.00% # Request fanout histogram (Count)
system.tol2bus.snoopFanout::overflows               0      0.00%    100.00% # Request fanout histogram (Count)
system.tol2bus.snoopFanout::min_value               0                       # Request fanout histogram (Count)
system.tol2bus.snoopFanout::max_value               1                       # Request fanout histogram (Count)
system.tol2bus.snoopFanout::total               24595                       # Request fanout histogram (Count)
system.tol2bus.power_state.pwrStateResidencyTicks::UNDEFINED   5820614000                       # Cumulative time (in ticks) in various power states (Tick)
system.tol2bus.reqLayer0.occupancy           40252500                       # Layer occupancy (ticks) (Tick)
system.tol2bus.reqLayer0.utilization              0.0                       # Layer utilization (Ratio)
system.tol2bus.respLayer0.occupancy           3580999                       # Layer occupancy (ticks) (Tick)
system.tol2bus.respLayer0.utilization             0.0                       # Layer utilization (Ratio)
system.tol2bus.respLayer1.occupancy          33297000                       # Layer occupancy (ticks) (Tick)
system.tol2bus.respLayer1.utilization             0.0                       # Layer utilization (Ratio)
system.tol2bus.snoop_filter.totRequests         45511                       # Total number of requests made to the snoop filter. (Count)
system.tol2bus.snoop_filter.hitSingleRequests        20930                       # Number of requests hitting in the snoop filter with a single holder of the requested data. (Count)
system.tol2bus.snoop_filter.hitMultiRequests           58                       # Number of requests hitting in the snoop filter with multiple (>1) holders of the requested data. (Count)
system.tol2bus.snoop_filter.totSnoops               0                       # Total number of snoops made to the snoop filter. (Count)
system.tol2bus.snoop_filter.hitSingleSnoops            0                       # Number of snoops hitting in the snoop filter with a single holder of the requested data. (Count)
system.tol2bus.snoop_filter.hitMultiSnoops            0                       # Number of snoops hitting in the snoop filter with multiple (>1) holders of the requested data. (Count)
system.voltage_domain.voltage                       1                       # Voltage in Volts (Volt)
system.workload.inst.arm                            0                       # number of arm instructions executed (Count)
system.workload.inst.quiesce                        0                       # number of quiesce instructions executed (Count)

---------- End Simulation Statistics   ----------
